omf/solvers/opendss/ieee240_EXP_VOLTAGES.csv
Bus, BasekV, Node1, Magnitude1, Angle1, pu1, Node2, Magnitude2, Angle2, pu2, Node3, Magnitude3, Angle3, pu3, Node4, Magnitude4, Angle4, pu4, Node5, Magnitude5, Angle5, pu5, Node6, Magnitude6, Angle6, pu6
"EQ_SOURCE_BUS", 69, 1,    39766.8,   -0.1,   0.99823, 2,    39776.8, -120.1,   0.99848, 3,    39772.7,  119.9,   0.99838, 0, 0, 0, 0, 0, 0, 0, 0, 0, 0, 0, 0
"BUS1001", 13.8, 1,    8128.84,  -30.6,    1.0203, 2,    8133.77, -150.5,    1.0209, 3,    8133.53,   89.5,    1.0208, 0, 0, 0, 0, 0, 0, 0, 0, 0, 0, 0, 0
"BUS1002", 13.8, 1,    8127.41,  -30.6,    1.0201, 2,     8132.2, -150.5,    1.0207, 3,    8132.15,   89.5,    1.0207, 0, 0, 0, 0, 0, 0, 0, 0, 0, 0, 0, 0
"BUS1003", 13.8, 1,    8127.36,  -30.6,    1.0201, 2,    8132.15, -150.5,    1.0207, 3,     8132.1,   89.5,    1.0207, 0, 0, 0, 0, 0, 0, 0, 0, 0, 0, 0, 0
"BUS1004", 13.8, 1,    8127.17,  -30.6,      1.02, 2,    8131.88, -150.5,    1.0206, 3,     8131.9,   89.4,    1.0206, 0, 0, 0, 0, 0, 0, 0, 0, 0, 0, 0, 0
"BUS1005", 13.8, 1,    8127.03,  -30.6,      1.02, 2,     8131.7, -150.5,    1.0206, 3,    8131.77,   89.4,    1.0206, 0, 0, 0, 0, 0, 0, 0, 0, 0, 0, 0, 0
"BUS1006", 13.8, 1,     8126.7,  -30.6,      1.02, 2,    8131.24, -150.5,    1.0206, 3,    8131.44,   89.4,    1.0206, 0, 0, 0, 0, 0, 0, 0, 0, 0, 0, 0, 0
"BUS1007", 13.8, 1,    8126.65,  -30.6,      1.02, 2,    8131.14, -150.5,    1.0205, 0, 0, 0, 0, 0, 0, 0, 0, 0, 0, 0, 0, 0, 0, 0, 0
"BUS1008", 13.8, 1,    8126.57,  -30.6,      1.02, 2,     8131.1, -150.5,    1.0205, 3,     8131.3,   89.4,    1.0206, 0, 0, 0, 0, 0, 0, 0, 0, 0, 0, 0, 0
"BUS1009", 13.8, 1,    8126.38,  -30.6,    1.0199, 2,    8130.86, -150.5,    1.0205, 3,    8131.05,   89.4,    1.0205, 0, 0, 0, 0, 0, 0, 0, 0, 0, 0, 0, 0
"BUS1010", 13.8, 1,    8126.38,  -30.6,    1.0199, 2,    8130.85, -150.5,    1.0205, 3,    8131.05,   89.4,    1.0205, 4,    8126.38,  -30.6,    1.0199, 5,    8130.85, -150.5,    1.0205, 6,    8131.05,   89.4,    1.0205
"BUS1011", 13.8, 1,    8126.38,  -30.6,    1.0199, 2,    8130.85, -150.5,    1.0205, 3,    8131.04,   89.4,    1.0205, 0, 0, 0, 0, 0, 0, 0, 0, 0, 0, 0, 0
"BUS1012", 13.8, 1,    8126.38,  -30.6,    1.0199, 2,    8130.84, -150.5,    1.0205, 3,    8131.03,   89.4,    1.0205, 0, 0, 0, 0, 0, 0, 0, 0, 0, 0, 0, 0
"BUS1013", 13.8, 1,     8126.4,  -30.6,      1.02, 2,    8130.83, -150.5,    1.0205, 3,    8130.96,   89.4,    1.0205, 0, 0, 0, 0, 0, 0, 0, 0, 0, 0, 0, 0
"BUS1014", 13.8, 2,    8130.81, -150.5,    1.0205, 0, 0, 0, 0, 0, 0, 0, 0, 0, 0, 0, 0, 0, 0, 0, 0, 0, 0, 0, 0
"BUS1015", 13.8, 2,    8130.81, -150.5,    1.0205, 0, 0, 0, 0, 0, 0, 0, 0, 0, 0, 0, 0, 0, 0, 0, 0, 0, 0, 0, 0
"BUS1016", 13.8, 3,    8130.84,   89.4,    1.0205, 0, 0, 0, 0, 0, 0, 0, 0, 0, 0, 0, 0, 0, 0, 0, 0, 0, 0, 0, 0
"BUS1017", 13.8, 3,    8130.83,   89.4,    1.0205, 0, 0, 0, 0, 0, 0, 0, 0, 0, 0, 0, 0, 0, 0, 0, 0, 0, 0, 0, 0
"BUS2001", 13.8, 1,    8128.84,  -30.6,    1.0203, 2,    8133.77, -150.5,    1.0209, 3,    8133.53,   89.5,    1.0208, 0, 0, 0, 0, 0, 0, 0, 0, 0, 0, 0, 0
"BUS2002", 13.8, 1,    8126.66,  -30.6,      1.02, 2,     8130.8, -150.5,    1.0205, 3,    8131.44,   89.4,    1.0206, 0, 0, 0, 0, 0, 0, 0, 0, 0, 0, 0, 0
"BUS2003", 13.8, 1,    8124.89,  -30.6,    1.0198, 2,    8128.71, -150.5,    1.0202, 3,     8130.2,   89.4,    1.0204, 0, 0, 0, 0, 0, 0, 0, 0, 0, 0, 0, 0
"BUS2004", 13.8, 1,    8123.84,  -30.6,    1.0196, 2,    8127.47, -150.6,    1.0201, 3,    8129.48,   89.4,    1.0203, 0, 0, 0, 0, 0, 0, 0, 0, 0, 0, 0, 0
"BUS2005", 13.8, 1,    8123.42,  -30.6,    1.0196, 2,    8126.98, -150.6,      1.02, 3,    8129.19,   89.4,    1.0203, 0, 0, 0, 0, 0, 0, 0, 0, 0, 0, 0, 0
"BUS2006", 13.8, 1,    8123.24,  -30.6,    1.0196, 2,    8126.76, -150.6,      1.02, 3,    8129.07,   89.4,    1.0203, 0, 0, 0, 0, 0, 0, 0, 0, 0, 0, 0, 0
"BUS2007", 13.8, 1,    8123.21,  -30.6,    1.0196, 0, 0, 0, 0, 0, 0, 0, 0, 0, 0, 0, 0, 0, 0, 0, 0, 0, 0, 0, 0
"BUS2008", 13.8, 1,     8123.2,  -30.6,    1.0196, 0, 0, 0, 0, 0, 0, 0, 0, 0, 0, 0, 0, 0, 0, 0, 0, 0, 0, 0, 0
"BUS2009", 13.8, 1,    8123.21,  -30.6,    1.0196, 0, 0, 0, 0, 0, 0, 0, 0, 0, 0, 0, 0, 0, 0, 0, 0, 0, 0, 0, 0
"BUS2010", 13.8, 1,    8123.04,  -30.6,    1.0195, 2,     8126.5, -150.6,      1.02, 3,    8128.93,   89.4,    1.0203, 0, 0, 0, 0, 0, 0, 0, 0, 0, 0, 0, 0
"BUS2011", 13.8, 1,    8122.72,  -30.6,    1.0195, 2,    8126.08, -150.6,    1.0199, 3,     8128.7,   89.4,    1.0202, 0, 0, 0, 0, 0, 0, 0, 0, 0, 0, 0, 0
"BUS2012", 13.8, 1,    8122.15,  -30.6,    1.0194, 2,    8125.32, -150.6,    1.0198, 3,     8128.3,   89.4,    1.0202, 0, 0, 0, 0, 0, 0, 0, 0, 0, 0, 0, 0
"BUS2013", 13.8, 1,    8122.15,  -30.6,    1.0194, 2,    8125.32, -150.6,    1.0198, 3,     8128.3,   89.4,    1.0202, 4,    8122.15,  -30.6,    1.0194, 5,    8125.32, -150.6,    1.0198, 6,     8128.3,   89.4,    1.0202
"BUS2014", 13.8, 1,    8122.14,  -30.6,    1.0194, 2,    8125.23, -150.6,    1.0198, 3,    8128.35,   89.4,    1.0202, 0, 0, 0, 0, 0, 0, 0, 0, 0, 0, 0, 0
"BUS2015", 13.8, 2,    8125.22, -150.6,    1.0198, 0, 0, 0, 0, 0, 0, 0, 0, 0, 0, 0, 0, 0, 0, 0, 0, 0, 0, 0, 0
"BUS2016", 13.8, 1,    8122.14,  -30.6,    1.0194, 2,    8125.17, -150.6,    1.0198, 3,    8128.38,   89.4,    1.0202, 0, 0, 0, 0, 0, 0, 0, 0, 0, 0, 0, 0
"BUS2017", 13.8, 1,    8122.15,  -30.6,    1.0194, 2,    8125.11, -150.6,    1.0198, 3,    8128.39,   89.4,    1.0202, 0, 0, 0, 0, 0, 0, 0, 0, 0, 0, 0, 0
"BUS2018", 13.8, 1,    8122.15,  -30.6,    1.0194, 2,    8125.05, -150.6,    1.0198, 3,    8128.41,   89.4,    1.0202, 0, 0, 0, 0, 0, 0, 0, 0, 0, 0, 0, 0
"BUS2019", 13.8, 1,    8122.11,  -30.6,    1.0194, 2,    8125.27, -150.6,    1.0198, 3,    8128.26,   89.4,    1.0202, 0, 0, 0, 0, 0, 0, 0, 0, 0, 0, 0, 0
"BUS2020", 13.8, 2,    8125.18, -150.6,    1.0198, 0, 0, 0, 0, 0, 0, 0, 0, 0, 0, 0, 0, 0, 0, 0, 0, 0, 0, 0, 0
"BUS2021", 13.8, 1,    8122.06,  -30.6,    1.0194, 2,    8125.22, -150.6,    1.0198, 3,    8128.22,   89.4,    1.0202, 0, 0, 0, 0, 0, 0, 0, 0, 0, 0, 0, 0
"BUS2022", 13.8, 3,    8128.14,   89.4,    1.0202, 0, 0, 0, 0, 0, 0, 0, 0, 0, 0, 0, 0, 0, 0, 0, 0, 0, 0, 0, 0
"BUS2023", 13.8, 3,     8128.1,   89.4,    1.0202, 0, 0, 0, 0, 0, 0, 0, 0, 0, 0, 0, 0, 0, 0, 0, 0, 0, 0, 0, 0
"BUS2024", 13.8, 3,       8128,   89.4,    1.0202, 0, 0, 0, 0, 0, 0, 0, 0, 0, 0, 0, 0, 0, 0, 0, 0, 0, 0, 0, 0
"BUS2025", 13.8, 3,    8127.96,   89.4,    1.0201, 0, 0, 0, 0, 0, 0, 0, 0, 0, 0, 0, 0, 0, 0, 0, 0, 0, 0, 0, 0
"BUS2026", 13.8, 1,    8122.06,  -30.6,    1.0194, 2,    8125.22, -150.6,    1.0198, 3,    8128.22,   89.4,    1.0202, 0, 0, 0, 0, 0, 0, 0, 0, 0, 0, 0, 0
"BUS2027", 13.8, 1,    8121.63,  -30.6,    1.0194, 2,    8124.83, -150.6,    1.0198, 3,    8127.91,   89.4,    1.0201, 0, 0, 0, 0, 0, 0, 0, 0, 0, 0, 0, 0
"BUS2028", 13.8, 1,    8121.54,  -30.6,    1.0193, 2,    8124.79, -150.6,    1.0198, 3,    8127.88,   89.4,    1.0201, 0, 0, 0, 0, 0, 0, 0, 0, 0, 0, 0, 0
"BUS2029", 13.8, 1,     8121.5,  -30.6,    1.0193, 2,    8124.78, -150.6,    1.0197, 3,    8127.86,   89.4,    1.0201, 0, 0, 0, 0, 0, 0, 0, 0, 0, 0, 0, 0
"BUS2030", 13.8, 1,    8121.47,  -30.6,    1.0193, 2,    8124.78, -150.6,    1.0197, 3,    8127.86,   89.4,    1.0201, 0, 0, 0, 0, 0, 0, 0, 0, 0, 0, 0, 0
"BUS2031", 13.8, 1,    8121.43,  -30.6,    1.0193, 2,    8124.79, -150.6,    1.0197, 3,    8127.86,   89.4,    1.0201, 0, 0, 0, 0, 0, 0, 0, 0, 0, 0, 0, 0
"BUS2032", 13.8, 1,    8121.48,  -30.6,    1.0193, 2,    8124.67, -150.6,    1.0197, 3,     8127.8,   89.4,    1.0201, 0, 0, 0, 0, 0, 0, 0, 0, 0, 0, 0, 0
"BUS2033", 13.8, 1,    8121.19,  -30.6,    1.0193, 2,    8124.37, -150.6,    1.0197, 3,    8127.59,   89.4,    1.0201, 0, 0, 0, 0, 0, 0, 0, 0, 0, 0, 0, 0
"BUS2034", 13.8, 1,    8121.18,  -30.6,    1.0193, 2,    8124.36, -150.6,    1.0197, 3,    8127.58,   89.4,    1.0201, 0, 0, 0, 0, 0, 0, 0, 0, 0, 0, 0, 0
"BUS2035", 13.8, 1,    8121.03,  -30.6,    1.0193, 2,    8124.21, -150.6,    1.0197, 3,    8127.48,   89.4,    1.0201, 0, 0, 0, 0, 0, 0, 0, 0, 0, 0, 0, 0
"BUS2036", 13.8, 1,    8120.88,  -30.6,    1.0193, 2,    8124.05, -150.6,    1.0197, 3,    8127.36,   89.4,    1.0201, 0, 0, 0, 0, 0, 0, 0, 0, 0, 0, 0, 0
"BUS2037", 13.8, 1,     8120.8,  -30.6,    1.0192, 2,    8123.97, -150.6,    1.0196, 3,    8127.31,   89.4,    1.0201, 0, 0, 0, 0, 0, 0, 0, 0, 0, 0, 0, 0
"BUS2038", 13.8, 1,    8120.62,  -30.6,    1.0192, 2,    8123.79, -150.6,    1.0196, 3,    8127.18,   89.4,    1.0201, 0, 0, 0, 0, 0, 0, 0, 0, 0, 0, 0, 0
"BUS2039", 13.8, 1,    8119.62,  -30.7,    1.0191, 2,    8122.77, -150.6,    1.0195, 3,     8126.4,   89.4,      1.02, 0, 0, 0, 0, 0, 0, 0, 0, 0, 0, 0, 0
"BUS2040", 13.8, 1,    8119.49,  -30.7,    1.0191, 2,    8122.63, -150.6,    1.0195, 3,    8126.26,   89.4,    1.0199, 0, 0, 0, 0, 0, 0, 0, 0, 0, 0, 0, 0
"BUS2041", 13.8, 1,    8119.48,  -30.7,    1.0191, 2,    8122.63, -150.6,    1.0195, 3,    8126.25,   89.4,    1.0199, 0, 0, 0, 0, 0, 0, 0, 0, 0, 0, 0, 0
"BUS2042", 13.8, 1,    8119.58,  -30.7,    1.0191, 2,    8122.71, -150.6,    1.0195, 3,    8126.36,   89.4,    1.0199, 0, 0, 0, 0, 0, 0, 0, 0, 0, 0, 0, 0
"BUS2043", 13.8, 1,    8119.37,  -30.7,    1.0191, 2,    8122.45, -150.6,    1.0195, 3,    8126.19,   89.4,    1.0199, 0, 0, 0, 0, 0, 0, 0, 0, 0, 0, 0, 0
"BUS2044", 13.8, 1,    8118.93,  -30.7,     1.019, 2,    8121.92, -150.6,    1.0194, 3,    8125.85,   89.4,    1.0199, 0, 0, 0, 0, 0, 0, 0, 0, 0, 0, 0, 0
"BUS2045", 13.8, 2,    8121.64, -150.6,    1.0194, 0, 0, 0, 0, 0, 0, 0, 0, 0, 0, 0, 0, 0, 0, 0, 0, 0, 0, 0, 0
"BUS2046", 13.8, 2,    8121.53, -150.6,    1.0193, 0, 0, 0, 0, 0, 0, 0, 0, 0, 0, 0, 0, 0, 0, 0, 0, 0, 0, 0, 0
"BUS2047", 13.8, 2,    8121.56, -150.6,    1.0193, 0, 0, 0, 0, 0, 0, 0, 0, 0, 0, 0, 0, 0, 0, 0, 0, 0, 0, 0, 0
"BUS2048", 13.8, 2,    8121.51, -150.6,    1.0193, 0, 0, 0, 0, 0, 0, 0, 0, 0, 0, 0, 0, 0, 0, 0, 0, 0, 0, 0, 0
"BUS2049", 13.8, 1,     8118.9,  -30.7,     1.019, 2,    8121.88, -150.6,    1.0194, 3,    8125.72,   89.4,    1.0199, 0, 0, 0, 0, 0, 0, 0, 0, 0, 0, 0, 0
"BUS2050", 13.8, 1,    8118.86,  -30.7,     1.019, 2,    8121.83, -150.6,    1.0194, 3,    8125.61,   89.4,    1.0199, 0, 0, 0, 0, 0, 0, 0, 0, 0, 0, 0, 0
"BUS2051", 13.8, 1,    8118.81,  -30.7,     1.019, 2,    8121.78, -150.6,    1.0194, 3,    8125.52,   89.4,    1.0198, 0, 0, 0, 0, 0, 0, 0, 0, 0, 0, 0, 0
"BUS2052", 13.8, 1,    8118.76,  -30.7,     1.019, 2,    8121.72, -150.6,    1.0194, 3,    8125.46,   89.4,    1.0198, 0, 0, 0, 0, 0, 0, 0, 0, 0, 0, 0, 0
"BUS2053", 13.8, 1,    8118.44,  -30.7,     1.019, 2,    8121.75, -150.6,    1.0194, 3,    8125.76,   89.4,    1.0199, 0, 0, 0, 0, 0, 0, 0, 0, 0, 0, 0, 0
"BUS2054", 13.8, 1,    8118.33,  -30.7,    1.0189, 2,    8121.77, -150.6,    1.0194, 3,    8125.77,   89.4,    1.0199, 0, 0, 0, 0, 0, 0, 0, 0, 0, 0, 0, 0
"BUS2055", 13.8, 1,    8118.27,  -30.7,    1.0189, 2,    8121.79, -150.6,    1.0194, 3,    8125.78,   89.4,    1.0199, 0, 0, 0, 0, 0, 0, 0, 0, 0, 0, 0, 0
"BUS2056", 13.8, 1,    8118.22,  -30.7,    1.0189, 2,     8121.8, -150.6,    1.0194, 3,    8125.79,   89.4,    1.0199, 0, 0, 0, 0, 0, 0, 0, 0, 0, 0, 0, 0
"BUS2057", 13.8, 1,    8118.23,  -30.7,    1.0189, 2,    8121.35, -150.6,    1.0193, 3,    8125.57,   89.4,    1.0198, 0, 0, 0, 0, 0, 0, 0, 0, 0, 0, 0, 0
"BUS2058", 13.8, 1,     8118.1,  -30.7,    1.0189, 2,    8121.22, -150.6,    1.0193, 3,    8125.44,   89.4,    1.0198, 0, 0, 0, 0, 0, 0, 0, 0, 0, 0, 0, 0
"BUS2059", 13.8, 1,    8118.25,  -30.7,    1.0189, 2,    8121.21, -150.6,    1.0193, 3,    8125.61,   89.4,    1.0199, 0, 0, 0, 0, 0, 0, 0, 0, 0, 0, 0, 0
"BUS2060", 13.8, 1,    8118.25,  -30.7,    1.0189, 2,    8121.18, -150.6,    1.0193, 3,    8125.61,   89.4,    1.0199, 0, 0, 0, 0, 0, 0, 0, 0, 0, 0, 0, 0
"BUS3001", 13.8, 1,    8128.84,  -30.6,    1.0203, 2,    8133.77, -150.5,    1.0209, 3,    8133.53,   89.5,    1.0208, 0, 0, 0, 0, 0, 0, 0, 0, 0, 0, 0, 0
"BUS3003", 13.8, 1,    8116.54,  -30.6,    1.0187, 2,    8127.76, -150.5,    1.0201, 3,    8124.37,   89.4,    1.0197, 0, 0, 0, 0, 0, 0, 0, 0, 0, 0, 0, 0
"BUS3002", 13.8, 1,    8116.53,  -30.6,    1.0187, 2,    8127.75, -150.5,    1.0201, 3,    8124.36,   89.4,    1.0197, 0, 0, 0, 0, 0, 0, 0, 0, 0, 0, 0, 0
"BUS3004", 13.8, 1,    8116.54,  -30.6,    1.0187, 2,    8127.76, -150.5,    1.0201, 3,    8124.37,   89.4,    1.0197, 0, 0, 0, 0, 0, 0, 0, 0, 0, 0, 0, 0
"BUS3005", 13.8, 1,    8106.11,  -30.7,    1.0174, 2,    8122.78, -150.6,    1.0195, 3,    8116.65,   89.4,    1.0187, 0, 0, 0, 0, 0, 0, 0, 0, 0, 0, 0, 0
"BUS3006", 13.8, 1,    8106.08,  -30.7,    1.0174, 2,    8122.75, -150.6,    1.0195, 3,    8116.63,   89.4,    1.0187, 0, 0, 0, 0, 0, 0, 0, 0, 0, 0, 0, 0
"BUS3007", 13.8, 1,    8106.06,  -30.7,    1.0174, 2,    8122.73, -150.6,    1.0195, 3,    8116.61,   89.4,    1.0187, 0, 0, 0, 0, 0, 0, 0, 0, 0, 0, 0, 0
"BUS3008", 13.8, 1,    8105.55,  -30.7,    1.0173, 2,    8122.52, -150.6,    1.0195, 3,    8116.09,   89.4,    1.0187, 0, 0, 0, 0, 0, 0, 0, 0, 0, 0, 0, 0
"BUS3009", 13.8, 1,    8105.42,  -30.7,    1.0173, 0, 0, 0, 0, 0, 0, 0, 0, 0, 0, 0, 0, 0, 0, 0, 0, 0, 0, 0, 0
"BUS3010", 13.8, 1,    8105.21,  -30.7,    1.0173, 0, 0, 0, 0, 0, 0, 0, 0, 0, 0, 0, 0, 0, 0, 0, 0, 0, 0, 0, 0
"BUS3011", 13.8, 1,     8105.1,  -30.7,    1.0173, 0, 0, 0, 0, 0, 0, 0, 0, 0, 0, 0, 0, 0, 0, 0, 0, 0, 0, 0, 0
"BUS3012", 13.8, 1,    8105.06,  -30.7,    1.0173, 0, 0, 0, 0, 0, 0, 0, 0, 0, 0, 0, 0, 0, 0, 0, 0, 0, 0, 0, 0
"BUS3013", 13.8, 2,    8122.48, -150.6,    1.0195, 0, 0, 0, 0, 0, 0, 0, 0, 0, 0, 0, 0, 0, 0, 0, 0, 0, 0, 0, 0
"BUS3014", 13.8, 2,    8122.44, -150.6,    1.0195, 0, 0, 0, 0, 0, 0, 0, 0, 0, 0, 0, 0, 0, 0, 0, 0, 0, 0, 0, 0
"BUS3015", 13.8, 1,    8104.39,  -30.7,    1.0172, 2,    8121.87, -150.6,    1.0194, 3,    8114.76,   89.4,    1.0185, 0, 0, 0, 0, 0, 0, 0, 0, 0, 0, 0, 0
"BUS3016", 13.8, 2,    8121.75, -150.6,    1.0194, 0, 0, 0, 0, 0, 0, 0, 0, 0, 0, 0, 0, 0, 0, 0, 0, 0, 0, 0, 0
"BUS3017", 13.8, 2,    8121.67, -150.6,    1.0194, 0, 0, 0, 0, 0, 0, 0, 0, 0, 0, 0, 0, 0, 0, 0, 0, 0, 0, 0, 0
"BUS3018", 13.8, 3,    8114.58,   89.4,    1.0185, 0, 0, 0, 0, 0, 0, 0, 0, 0, 0, 0, 0, 0, 0, 0, 0, 0, 0, 0, 0
"BUS3019", 13.8, 3,    8114.37,   89.4,    1.0184, 0, 0, 0, 0, 0, 0, 0, 0, 0, 0, 0, 0, 0, 0, 0, 0, 0, 0, 0, 0
"BUS3020", 13.8, 3,     8114.2,   89.4,    1.0184, 0, 0, 0, 0, 0, 0, 0, 0, 0, 0, 0, 0, 0, 0, 0, 0, 0, 0, 0, 0
"BUS3021", 13.8, 3,     8114.1,   89.4,    1.0184, 0, 0, 0, 0, 0, 0, 0, 0, 0, 0, 0, 0, 0, 0, 0, 0, 0, 0, 0, 0
"BUS3022", 13.8, 1,    8103.29,  -30.7,    1.0171, 2,    8121.41, -150.6,    1.0193, 3,     8113.7,   89.4,    1.0184, 0, 0, 0, 0, 0, 0, 0, 0, 0, 0, 0, 0
"BUS3023", 13.8, 1,    8103.19,  -30.7,     1.017, 0, 0, 0, 0, 0, 0, 0, 0, 0, 0, 0, 0, 0, 0, 0, 0, 0, 0, 0, 0
"BUS3024", 13.8, 1,    8103.05,  -30.7,     1.017, 0, 0, 0, 0, 0, 0, 0, 0, 0, 0, 0, 0, 0, 0, 0, 0, 0, 0, 0, 0
"BUS3025", 13.8, 1,    8102.97,  -30.7,     1.017, 0, 0, 0, 0, 0, 0, 0, 0, 0, 0, 0, 0, 0, 0, 0, 0, 0, 0, 0, 0
"BUS3026", 13.8, 1,     8103.1,  -30.7,     1.017, 0, 0, 0, 0, 0, 0, 0, 0, 0, 0, 0, 0, 0, 0, 0, 0, 0, 0, 0, 0
"BUS3027", 13.8, 1,    8102.81,  -30.7,     1.017, 0, 0, 0, 0, 0, 0, 0, 0, 0, 0, 0, 0, 0, 0, 0, 0, 0, 0, 0, 0
"BUS3028", 13.8, 1,    8102.67,  -30.7,     1.017, 0, 0, 0, 0, 0, 0, 0, 0, 0, 0, 0, 0, 0, 0, 0, 0, 0, 0, 0, 0
"BUS3029", 13.8, 1,    8102.64,  -30.7,     1.017, 0, 0, 0, 0, 0, 0, 0, 0, 0, 0, 0, 0, 0, 0, 0, 0, 0, 0, 0, 0
"BUS3030", 13.8, 1,    8102.46,  -30.7,    1.0169, 2,    8120.78, -150.6,    1.0192, 3,    8112.64,   89.4,    1.0182, 0, 0, 0, 0, 0, 0, 0, 0, 0, 0, 0, 0
"BUS3035", 13.8, 1,    8102.42,  -30.7,    1.0169, 2,    8120.64, -150.6,    1.0192, 3,    8112.68,   89.4,    1.0182, 0, 0, 0, 0, 0, 0, 0, 0, 0, 0, 0, 0
"BUS3036", 13.8, 1,    8102.33,  -30.7,    1.0169, 2,    8120.32, -150.6,    1.0192, 3,    8112.79,   89.4,    1.0182, 0, 0, 0, 0, 0, 0, 0, 0, 0, 0, 0, 0
"BUS3037", 13.8, 1,    8102.29,  -30.7,    1.0169, 2,    8120.15, -150.6,    1.0192, 3,    8112.85,   89.4,    1.0183, 0, 0, 0, 0, 0, 0, 0, 0, 0, 0, 0, 0
"BUS3038", 13.8, 1,    8102.22,  -30.7,    1.0169, 2,    8119.86, -150.6,    1.0191, 3,    8112.96,   89.4,    1.0183, 0, 0, 0, 0, 0, 0, 0, 0, 0, 0, 0, 0
"BUS3039", 13.8, 1,    8102.17,  -30.7,    1.0169, 2,     8119.6, -150.6,    1.0191, 3,    8113.08,   89.4,    1.0183, 0, 0, 0, 0, 0, 0, 0, 0, 0, 0, 0, 0
"BUS3053", 13.8, 1,    8102.11,  -30.7,    1.0169, 2,    8119.31, -150.6,    1.0191, 3,    8113.22,   89.4,    1.0183, 0, 0, 0, 0, 0, 0, 0, 0, 0, 0, 0, 0
"BUS3054", 13.8, 1,     8102.1,  -30.7,    1.0169, 2,    8119.31, -150.6,    1.0191, 3,    8113.21,   89.4,    1.0183, 0, 0, 0, 0, 0, 0, 0, 0, 0, 0, 0, 0
"BUS3055", 13.8, 2,    8116.26, -150.6,    1.0187, 0, 0, 0, 0, 0, 0, 0, 0, 0, 0, 0, 0, 0, 0, 0, 0, 0, 0, 0, 0
"BUS3056", 13.8, 2,    8116.13, -150.6,    1.0187, 0, 0, 0, 0, 0, 0, 0, 0, 0, 0, 0, 0, 0, 0, 0, 0, 0, 0, 0, 0
"BUS3057", 13.8, 2,    8115.99, -150.6,    1.0186, 0, 0, 0, 0, 0, 0, 0, 0, 0, 0, 0, 0, 0, 0, 0, 0, 0, 0, 0, 0
"BUS3058", 13.8, 2,    8115.88, -150.6,    1.0186, 0, 0, 0, 0, 0, 0, 0, 0, 0, 0, 0, 0, 0, 0, 0, 0, 0, 0, 0, 0
"BUS3059", 13.8, 2,    8115.76, -150.6,    1.0186, 0, 0, 0, 0, 0, 0, 0, 0, 0, 0, 0, 0, 0, 0, 0, 0, 0, 0, 0, 0
"BUS3060", 13.8, 2,    8115.74, -150.6,    1.0186, 0, 0, 0, 0, 0, 0, 0, 0, 0, 0, 0, 0, 0, 0, 0, 0, 0, 0, 0, 0
"BUS3061", 13.8, 2,    8115.73, -150.6,    1.0186, 0, 0, 0, 0, 0, 0, 0, 0, 0, 0, 0, 0, 0, 0, 0, 0, 0, 0, 0, 0
"BUS3062", 13.8, 2,    8115.68, -150.6,    1.0186, 0, 0, 0, 0, 0, 0, 0, 0, 0, 0, 0, 0, 0, 0, 0, 0, 0, 0, 0, 0
"BUS3063", 13.8, 2,    8115.42, -150.6,    1.0186, 0, 0, 0, 0, 0, 0, 0, 0, 0, 0, 0, 0, 0, 0, 0, 0, 0, 0, 0, 0
"BUS3064", 13.8, 2,    8115.27, -150.6,    1.0186, 0, 0, 0, 0, 0, 0, 0, 0, 0, 0, 0, 0, 0, 0, 0, 0, 0, 0, 0, 0
"BUS3065", 13.8, 2,    8115.15, -150.6,    1.0185, 0, 0, 0, 0, 0, 0, 0, 0, 0, 0, 0, 0, 0, 0, 0, 0, 0, 0, 0, 0
"BUS3066", 13.8, 2,    8115.09, -150.6,    1.0185, 0, 0, 0, 0, 0, 0, 0, 0, 0, 0, 0, 0, 0, 0, 0, 0, 0, 0, 0, 0
"BUS3067", 13.8, 2,    8115.01, -150.6,    1.0185, 0, 0, 0, 0, 0, 0, 0, 0, 0, 0, 0, 0, 0, 0, 0, 0, 0, 0, 0, 0
"BUS3040", 13.8, 1,    8102.52,  -30.7,     1.017, 2,    8120.68, -150.6,    1.0192, 3,    8112.39,   89.4,    1.0182, 0, 0, 0, 0, 0, 0, 0, 0, 0, 0, 0, 0
"BUS3044", 13.8, 3,    8112.34,   89.4,    1.0182, 0, 0, 0, 0, 0, 0, 0, 0, 0, 0, 0, 0, 0, 0, 0, 0, 0, 0, 0, 0
"BUS3045", 13.8, 3,    8112.28,   89.4,    1.0182, 0, 0, 0, 0, 0, 0, 0, 0, 0, 0, 0, 0, 0, 0, 0, 0, 0, 0, 0, 0
"BUS3041", 13.8, 3,    8112.31,   89.4,    1.0182, 0, 0, 0, 0, 0, 0, 0, 0, 0, 0, 0, 0, 0, 0, 0, 0, 0, 0, 0, 0
"BUS3042", 13.8, 3,    8112.15,   89.4,    1.0182, 0, 0, 0, 0, 0, 0, 0, 0, 0, 0, 0, 0, 0, 0, 0, 0, 0, 0, 0, 0
"BUS3043", 13.8, 3,    8112.05,   89.4,    1.0182, 0, 0, 0, 0, 0, 0, 0, 0, 0, 0, 0, 0, 0, 0, 0, 0, 0, 0, 0, 0
"BUS3046", 13.8, 1,    8102.47,  -30.7,    1.0169, 2,    8120.63, -150.6,    1.0192, 3,    8112.34,   89.4,    1.0182, 0, 0, 0, 0, 0, 0, 0, 0, 0, 0, 0, 0
"BUS3047", 13.8, 1,    8102.46,  -30.7,    1.0169, 2,    8120.62, -150.6,    1.0192, 3,    8112.33,   89.4,    1.0182, 0, 0, 0, 0, 0, 0, 0, 0, 0, 0, 0, 0
"BUS3048", 13.8, 1,    8102.46,  -30.7,    1.0169, 2,    8120.62, -150.6,    1.0192, 3,    8112.33,   89.4,    1.0182, 0, 0, 0, 0, 0, 0, 0, 0, 0, 0, 0, 0
"BUS3049", 13.8, 1,    8102.44,  -30.7,    1.0169, 2,     8120.6, -150.6,    1.0192, 3,    8112.31,   89.4,    1.0182, 0, 0, 0, 0, 0, 0, 0, 0, 0, 0, 0, 0
"BUS3050", 13.8, 1,    8102.43,  -30.7,    1.0169, 2,    8120.59, -150.6,    1.0192, 3,     8112.3,   89.4,    1.0182, 0, 0, 0, 0, 0, 0, 0, 0, 0, 0, 0, 0
"BUS3051", 13.8, 1,    8102.41,  -30.7,    1.0169, 2,    8120.57, -150.6,    1.0192, 3,    8112.28,   89.4,    1.0182, 0, 0, 0, 0, 0, 0, 0, 0, 0, 0, 0, 0
"BUS3052", 13.8, 1,     8102.4,  -30.7,    1.0169, 2,    8120.56, -150.6,    1.0192, 3,    8112.27,   89.4,    1.0182, 0, 0, 0, 0, 0, 0, 0, 0, 0, 0, 0, 0
"BUS3031", 13.8, 1,    8101.86,  -30.7,    1.0169, 2,    8120.64, -150.6,    1.0192, 3,     8111.9,   89.4,    1.0181, 0, 0, 0, 0, 0, 0, 0, 0, 0, 0, 0, 0
"BUS3032", 13.8, 1,    8101.24,  -30.7,    1.0168, 2,    8120.51, -150.6,    1.0192, 3,    8111.13,   89.4,     1.018, 0, 0, 0, 0, 0, 0, 0, 0, 0, 0, 0, 0
"BUS3033", 13.8, 1,    8100.29,  -30.7,    1.0167, 2,    8120.33, -150.6,    1.0192, 3,    8109.97,   89.4,    1.0179, 0, 0, 0, 0, 0, 0, 0, 0, 0, 0, 0, 0
"BUS3034", 13.8, 1,    8099.68,  -30.7,    1.0166, 2,    8120.22, -150.6,    1.0192, 3,    8109.21,   89.4,    1.0178, 0, 0, 0, 0, 0, 0, 0, 0, 0, 0, 0, 0
"BUS3068", 13.8, 1,    8099.29,  -30.7,    1.0165, 2,    8120.15, -150.6,    1.0192, 3,    8108.73,   89.4,    1.0177, 0, 0, 0, 0, 0, 0, 0, 0, 0, 0, 0, 0
"BUS3069", 13.8, 1,    8099.27,  -30.7,    1.0165, 2,    8120.13, -150.6,    1.0192, 3,    8108.71,   89.4,    1.0177, 0, 0, 0, 0, 0, 0, 0, 0, 0, 0, 0, 0
"BUS3070", 13.8, 1,    8099.26,  -30.7,    1.0165, 2,    8120.12, -150.6,    1.0192, 3,     8108.7,   89.4,    1.0177, 0, 0, 0, 0, 0, 0, 0, 0, 0, 0, 0, 0
"BUS3071", 13.8, 1,    8099.26,  -30.7,    1.0165, 2,    8120.12, -150.6,    1.0192, 3,     8108.7,   89.4,    1.0177, 0, 0, 0, 0, 0, 0, 0, 0, 0, 0, 0, 0
"BUS3072", 13.8, 1,    8099.26,  -30.7,    1.0165, 2,    8120.12, -150.6,    1.0192, 3,    8108.69,   89.4,    1.0177, 0, 0, 0, 0, 0, 0, 0, 0, 0, 0, 0, 0
"BUS3073", 13.8, 1,    8099.27,  -30.7,    1.0165, 2,    8120.13, -150.6,    1.0192, 3,     8108.7,   89.4,    1.0177, 0, 0, 0, 0, 0, 0, 0, 0, 0, 0, 0, 0
"BUS3074", 13.8, 1,    8099.26,  -30.7,    1.0165, 2,    8120.12, -150.6,    1.0192, 3,    8108.69,   89.4,    1.0177, 0, 0, 0, 0, 0, 0, 0, 0, 0, 0, 0, 0
"BUS3075", 13.8, 1,    8098.86,  -30.7,    1.0165, 2,    8120.08, -150.6,    1.0192, 3,    8108.19,   89.4,    1.0177, 0, 0, 0, 0, 0, 0, 0, 0, 0, 0, 0, 0
"BUS3076", 13.8, 1,    8098.86,  -30.7,    1.0165, 2,    8120.08, -150.6,    1.0192, 3,    8108.19,   89.4,    1.0177, 0, 0, 0, 0, 0, 0, 0, 0, 0, 0, 0, 0
"BUS3077", 13.8, 1,    8098.62,  -30.7,    1.0165, 2,    8119.85, -150.6,    1.0191, 3,    8107.95,   89.4,    1.0176, 0, 0, 0, 0, 0, 0, 0, 0, 0, 0, 0, 0
"BUS3078", 13.8, 1,    8098.62,  -30.7,    1.0165, 2,    8119.85, -150.6,    1.0191, 3,    8107.95,   89.4,    1.0176, 0, 0, 0, 0, 0, 0, 0, 0, 0, 0, 0, 0
"BUS3079", 13.8, 1,    8098.47,  -30.7,    1.0164, 2,    8120.07, -150.6,    1.0192, 3,    8107.69,   89.4,    1.0176, 0, 0, 0, 0, 0, 0, 0, 0, 0, 0, 0, 0
"BUS3080", 13.8, 1,    8097.06,  -30.8,    1.0163, 2,    8119.83, -150.6,    1.0191, 3,    8105.93,   89.4,    1.0174, 0, 0, 0, 0, 0, 0, 0, 0, 0, 0, 0, 0
"BUS3081", 13.8, 1,    8097.05,  -30.8,    1.0163, 2,    8119.83, -150.6,    1.0191, 3,    8105.93,   89.4,    1.0174, 4,    8097.05,  -30.8,    1.0163, 5,    8119.83, -150.6,    1.0191, 6,    8105.93,   89.4,    1.0174
"BUS3082", 13.8, 1,     8095.8,  -30.8,    1.0161, 2,    8119.62, -150.6,    1.0191, 3,    8104.36,   89.4,    1.0172, 0, 0, 0, 0, 0, 0, 0, 0, 0, 0, 0, 0
"BUS3083", 13.8, 1,     8095.6,  -30.8,    1.0161, 0, 0, 0, 0, 0, 0, 0, 0, 0, 0, 0, 0, 0, 0, 0, 0, 0, 0, 0, 0
"BUS3084", 13.8, 1,    8095.34,  -30.8,    1.0161, 0, 0, 0, 0, 0, 0, 0, 0, 0, 0, 0, 0, 0, 0, 0, 0, 0, 0, 0, 0
"BUS3085", 13.8, 1,    8094.68,  -30.8,     1.016, 0, 0, 0, 0, 0, 0, 0, 0, 0, 0, 0, 0, 0, 0, 0, 0, 0, 0, 0, 0
"BUS3086", 13.8, 1,    8094.36,  -30.8,    1.0159, 0, 0, 0, 0, 0, 0, 0, 0, 0, 0, 0, 0, 0, 0, 0, 0, 0, 0, 0, 0
"BUS3087", 13.8, 1,    8094.15,  -30.8,    1.0159, 0, 0, 0, 0, 0, 0, 0, 0, 0, 0, 0, 0, 0, 0, 0, 0, 0, 0, 0, 0
"BUS3088", 13.8, 1,    8093.88,  -30.8,    1.0159, 0, 0, 0, 0, 0, 0, 0, 0, 0, 0, 0, 0, 0, 0, 0, 0, 0, 0, 0, 0
"BUS3089", 13.8, 1,    8093.85,  -30.8,    1.0159, 0, 0, 0, 0, 0, 0, 0, 0, 0, 0, 0, 0, 0, 0, 0, 0, 0, 0, 0, 0
"BUS3090", 13.8, 1,    8093.71,  -30.8,    1.0158, 0, 0, 0, 0, 0, 0, 0, 0, 0, 0, 0, 0, 0, 0, 0, 0, 0, 0, 0, 0
"BUS3091", 13.8, 1,    8093.68,  -30.8,    1.0158, 0, 0, 0, 0, 0, 0, 0, 0, 0, 0, 0, 0, 0, 0, 0, 0, 0, 0, 0, 0
"BUS3092", 13.8, 1,    8095.65,  -30.8,    1.0161, 2,    8119.62, -150.6,    1.0191, 3,    8104.08,   89.4,    1.0172, 0, 0, 0, 0, 0, 0, 0, 0, 0, 0, 0, 0
"BUS3093", 13.8, 1,    8095.35,  -30.8,    1.0161, 0, 0, 0, 0, 0, 0, 0, 0, 0, 0, 0, 0, 0, 0, 0, 0, 0, 0, 0, 0
"BUS3094", 13.8, 1,    8095.21,  -30.8,     1.016, 0, 0, 0, 0, 0, 0, 0, 0, 0, 0, 0, 0, 0, 0, 0, 0, 0, 0, 0, 0
"BUS3095", 13.8, 1,    8095.15,  -30.8,     1.016, 0, 0, 0, 0, 0, 0, 0, 0, 0, 0, 0, 0, 0, 0, 0, 0, 0, 0, 0, 0
"BUS3096", 13.8, 1,    8094.94,  -30.8,     1.016, 0, 0, 0, 0, 0, 0, 0, 0, 0, 0, 0, 0, 0, 0, 0, 0, 0, 0, 0, 0
"BUS3097", 13.8, 1,    8094.88,  -30.8,     1.016, 0, 0, 0, 0, 0, 0, 0, 0, 0, 0, 0, 0, 0, 0, 0, 0, 0, 0, 0, 0
"BUS3098", 13.8, 2,    8119.47, -150.6,    1.0191, 0, 0, 0, 0, 0, 0, 0, 0, 0, 0, 0, 0, 0, 0, 0, 0, 0, 0, 0, 0
"BUS3099", 13.8, 2,    8119.41, -150.6,    1.0191, 0, 0, 0, 0, 0, 0, 0, 0, 0, 0, 0, 0, 0, 0, 0, 0, 0, 0, 0, 0
"BUS3100", 13.8, 1,    8095.69,  -30.8,    1.0161, 2,    8119.64, -150.6,    1.0191, 3,    8103.91,   89.4,    1.0171, 0, 0, 0, 0, 0, 0, 0, 0, 0, 0, 0, 0
"BUS3101", 13.8, 3,    8103.78,   89.4,    1.0171, 0, 0, 0, 0, 0, 0, 0, 0, 0, 0, 0, 0, 0, 0, 0, 0, 0, 0, 0, 0
"BUS3102", 13.8, 3,    8103.62,   89.4,    1.0171, 0, 0, 0, 0, 0, 0, 0, 0, 0, 0, 0, 0, 0, 0, 0, 0, 0, 0, 0, 0
"BUS3103", 13.8, 3,    8103.57,   89.4,    1.0171, 0, 0, 0, 0, 0, 0, 0, 0, 0, 0, 0, 0, 0, 0, 0, 0, 0, 0, 0, 0
"BUS3104", 13.8, 3,    8103.68,   89.4,    1.0171, 0, 0, 0, 0, 0, 0, 0, 0, 0, 0, 0, 0, 0, 0, 0, 0, 0, 0, 0, 0
"BUS3105", 13.8, 3,    8103.61,   89.4,    1.0171, 0, 0, 0, 0, 0, 0, 0, 0, 0, 0, 0, 0, 0, 0, 0, 0, 0, 0, 0, 0
"BUS3106", 13.8, 3,    8103.52,   89.4,    1.0171, 0, 0, 0, 0, 0, 0, 0, 0, 0, 0, 0, 0, 0, 0, 0, 0, 0, 0, 0, 0
"BUS3107", 13.8, 1,    8093.05,  -30.8,    1.0158, 2,     8118.5, -150.6,     1.019, 3,    8101.87,   89.4,    1.0169, 0, 0, 0, 0, 0, 0, 0, 0, 0, 0, 0, 0
"BUS3108", 13.8, 1,    8092.08,  -30.8,    1.0156, 0, 0, 0, 0, 0, 0, 0, 0, 0, 0, 0, 0, 0, 0, 0, 0, 0, 0, 0, 0
"BUS3109", 13.8, 1,     8091.8,  -30.8,    1.0156, 0, 0, 0, 0, 0, 0, 0, 0, 0, 0, 0, 0, 0, 0, 0, 0, 0, 0, 0, 0
"BUS3110", 13.8, 1,    8091.61,  -30.8,    1.0156, 0, 0, 0, 0, 0, 0, 0, 0, 0, 0, 0, 0, 0, 0, 0, 0, 0, 0, 0, 0
"BUS3111", 13.8, 1,    8091.37,  -30.8,    1.0156, 0, 0, 0, 0, 0, 0, 0, 0, 0, 0, 0, 0, 0, 0, 0, 0, 0, 0, 0, 0
"BUS3112", 13.8, 1,    8091.24,  -30.8,    1.0155, 0, 0, 0, 0, 0, 0, 0, 0, 0, 0, 0, 0, 0, 0, 0, 0, 0, 0, 0, 0
"BUS3113", 13.8, 2,    8118.23, -150.6,    1.0189, 0, 0, 0, 0, 0, 0, 0, 0, 0, 0, 0, 0, 0, 0, 0, 0, 0, 0, 0, 0
"BUS3114", 13.8, 2,    8118.14, -150.6,    1.0189, 0, 0, 0, 0, 0, 0, 0, 0, 0, 0, 0, 0, 0, 0, 0, 0, 0, 0, 0, 0
"BUS3115", 13.8, 2,    8118.03, -150.6,    1.0189, 0, 0, 0, 0, 0, 0, 0, 0, 0, 0, 0, 0, 0, 0, 0, 0, 0, 0, 0, 0
"BUS3116", 13.8, 2,    8117.99, -150.6,    1.0189, 0, 0, 0, 0, 0, 0, 0, 0, 0, 0, 0, 0, 0, 0, 0, 0, 0, 0, 0, 0
"BUS3117", 13.8, 2,    8117.96, -150.6,    1.0189, 0, 0, 0, 0, 0, 0, 0, 0, 0, 0, 0, 0, 0, 0, 0, 0, 0, 0, 0, 0
"BUS3118", 13.8, 1,    8090.17,  -30.8,    1.0154, 2,    8116.41, -150.6,    1.0187, 3,    8103.11,   89.4,     1.017, 0, 0, 0, 0, 0, 0, 0, 0, 0, 0, 0, 0
"BUS3119", 13.8, 2,    8115.43, -150.6,    1.0186, 0, 0, 0, 0, 0, 0, 0, 0, 0, 0, 0, 0, 0, 0, 0, 0, 0, 0, 0, 0
"BUS3120", 13.8, 2,    8115.26, -150.6,    1.0186, 0, 0, 0, 0, 0, 0, 0, 0, 0, 0, 0, 0, 0, 0, 0, 0, 0, 0, 0, 0
"BUS3121", 13.8, 2,    8115.19, -150.6,    1.0185, 0, 0, 0, 0, 0, 0, 0, 0, 0, 0, 0, 0, 0, 0, 0, 0, 0, 0, 0, 0
"BUS3122", 13.8, 2,    8115.15, -150.6,    1.0185, 0, 0, 0, 0, 0, 0, 0, 0, 0, 0, 0, 0, 0, 0, 0, 0, 0, 0, 0, 0
"BUS3123", 13.8, 2,    8115.27, -150.6,    1.0186, 0, 0, 0, 0, 0, 0, 0, 0, 0, 0, 0, 0, 0, 0, 0, 0, 0, 0, 0, 0
"BUS3124", 13.8, 2,    8115.18, -150.6,    1.0185, 0, 0, 0, 0, 0, 0, 0, 0, 0, 0, 0, 0, 0, 0, 0, 0, 0, 0, 0, 0
"BUS3125", 13.8, 2,       8115, -150.6,    1.0185, 0, 0, 0, 0, 0, 0, 0, 0, 0, 0, 0, 0, 0, 0, 0, 0, 0, 0, 0, 0
"BUS3126", 13.8, 2,    8114.59, -150.6,    1.0185, 0, 0, 0, 0, 0, 0, 0, 0, 0, 0, 0, 0, 0, 0, 0, 0, 0, 0, 0, 0
"BUS3127", 13.8, 2,    8114.39, -150.6,    1.0184, 0, 0, 0, 0, 0, 0, 0, 0, 0, 0, 0, 0, 0, 0, 0, 0, 0, 0, 0, 0
"BUS3128", 13.8, 2,    8114.24, -150.6,    1.0184, 0, 0, 0, 0, 0, 0, 0, 0, 0, 0, 0, 0, 0, 0, 0, 0, 0, 0, 0, 0
"BUS3129", 13.8, 2,    8114.14, -150.6,    1.0184, 0, 0, 0, 0, 0, 0, 0, 0, 0, 0, 0, 0, 0, 0, 0, 0, 0, 0, 0, 0
"BUS3130", 13.8, 2,    8114.06, -150.6,    1.0184, 0, 0, 0, 0, 0, 0, 0, 0, 0, 0, 0, 0, 0, 0, 0, 0, 0, 0, 0, 0
"BUS3131", 13.8, 2,    8114.02, -150.6,    1.0184, 0, 0, 0, 0, 0, 0, 0, 0, 0, 0, 0, 0, 0, 0, 0, 0, 0, 0, 0, 0
"BUS3132", 13.8, 1,    8088.81,  -30.8,    1.0152, 0, 0, 0, 0, 0, 0, 0, 0, 0, 0, 0, 0, 0, 0, 0, 0, 0, 0, 0, 0
"BUS3133", 13.8, 1,    8088.51,  -30.8,    1.0152, 0, 0, 0, 0, 0, 0, 0, 0, 0, 0, 0, 0, 0, 0, 0, 0, 0, 0, 0, 0
"BUS3134", 13.8, 1,     8088.2,  -30.8,    1.0152, 0, 0, 0, 0, 0, 0, 0, 0, 0, 0, 0, 0, 0, 0, 0, 0, 0, 0, 0, 0
"BUS3135", 13.8, 1,       8088,  -30.8,    1.0151, 0, 0, 0, 0, 0, 0, 0, 0, 0, 0, 0, 0, 0, 0, 0, 0, 0, 0, 0, 0
"BUS3136", 13.8, 1,    8087.82,  -30.8,    1.0151, 0, 0, 0, 0, 0, 0, 0, 0, 0, 0, 0, 0, 0, 0, 0, 0, 0, 0, 0, 0
"BUS3137", 13.8, 1,    8088.24,  -30.8,    1.0152, 0, 0, 0, 0, 0, 0, 0, 0, 0, 0, 0, 0, 0, 0, 0, 0, 0, 0, 0, 0
"BUS3138", 13.8, 1,    8088.09,  -30.8,    1.0151, 0, 0, 0, 0, 0, 0, 0, 0, 0, 0, 0, 0, 0, 0, 0, 0, 0, 0, 0, 0
"BUS3139", 13.8, 1,     8088.1,  -30.8,    1.0151, 0, 0, 0, 0, 0, 0, 0, 0, 0, 0, 0, 0, 0, 0, 0, 0, 0, 0, 0, 0
"BUS3140", 13.8, 3,    8100.69,   89.4,    1.0167, 0, 0, 0, 0, 0, 0, 0, 0, 0, 0, 0, 0, 0, 0, 0, 0, 0, 0, 0, 0
"BUS3141", 13.8, 3,    8100.59,   89.4,    1.0167, 0, 0, 0, 0, 0, 0, 0, 0, 0, 0, 0, 0, 0, 0, 0, 0, 0, 0, 0, 0
"BUS3142", 13.8, 3,    8100.48,   89.4,    1.0167, 0, 0, 0, 0, 0, 0, 0, 0, 0, 0, 0, 0, 0, 0, 0, 0, 0, 0, 0, 0
"BUS3143", 13.8, 3,     8100.4,   89.4,    1.0167, 0, 0, 0, 0, 0, 0, 0, 0, 0, 0, 0, 0, 0, 0, 0, 0, 0, 0, 0, 0
"BUS3148", 13.8, 3,    8100.47,   89.4,    1.0167, 0, 0, 0, 0, 0, 0, 0, 0, 0, 0, 0, 0, 0, 0, 0, 0, 0, 0, 0, 0
"BUS3149", 13.8, 3,    8100.23,   89.4,    1.0167, 0, 0, 0, 0, 0, 0, 0, 0, 0, 0, 0, 0, 0, 0, 0, 0, 0, 0, 0, 0
"BUS3150", 13.8, 3,    8100.11,   89.4,    1.0167, 0, 0, 0, 0, 0, 0, 0, 0, 0, 0, 0, 0, 0, 0, 0, 0, 0, 0, 0, 0
"BUS3151", 13.8, 3,    8099.99,   89.4,    1.0166, 0, 0, 0, 0, 0, 0, 0, 0, 0, 0, 0, 0, 0, 0, 0, 0, 0, 0, 0, 0
"BUS3152", 13.8, 3,    8099.81,   89.4,    1.0166, 0, 0, 0, 0, 0, 0, 0, 0, 0, 0, 0, 0, 0, 0, 0, 0, 0, 0, 0, 0
"BUS3153", 13.8, 3,    8099.73,   89.4,    1.0166, 0, 0, 0, 0, 0, 0, 0, 0, 0, 0, 0, 0, 0, 0, 0, 0, 0, 0, 0, 0
"BUS3154", 13.8, 3,     8099.7,   89.4,    1.0166, 0, 0, 0, 0, 0, 0, 0, 0, 0, 0, 0, 0, 0, 0, 0, 0, 0, 0, 0, 0
"BUS3155", 13.8, 3,    8099.67,   89.4,    1.0166, 0, 0, 0, 0, 0, 0, 0, 0, 0, 0, 0, 0, 0, 0, 0, 0, 0, 0, 0, 0
"BUS3156", 13.8, 3,    8099.93,   89.4,    1.0166, 0, 0, 0, 0, 0, 0, 0, 0, 0, 0, 0, 0, 0, 0, 0, 0, 0, 0, 0, 0
"BUS3144", 13.8, 3,    8099.85,   89.4,    1.0166, 0, 0, 0, 0, 0, 0, 0, 0, 0, 0, 0, 0, 0, 0, 0, 0, 0, 0, 0, 0
"BUS3145", 13.8, 3,    8099.74,   89.4,    1.0166, 0, 0, 0, 0, 0, 0, 0, 0, 0, 0, 0, 0, 0, 0, 0, 0, 0, 0, 0, 0
"BUS3146", 13.8, 3,    8099.65,   89.4,    1.0166, 0, 0, 0, 0, 0, 0, 0, 0, 0, 0, 0, 0, 0, 0, 0, 0, 0, 0, 0, 0
"BUS3147", 13.8, 3,    8099.57,   89.4,    1.0166, 0, 0, 0, 0, 0, 0, 0, 0, 0, 0, 0, 0, 0, 0, 0, 0, 0, 0, 0, 0
"BUS3157", 13.8, 3,    8099.65,   89.4,    1.0166, 0, 0, 0, 0, 0, 0, 0, 0, 0, 0, 0, 0, 0, 0, 0, 0, 0, 0, 0, 0
"BUS3158", 13.8, 3,    8099.28,   89.4,    1.0165, 0, 0, 0, 0, 0, 0, 0, 0, 0, 0, 0, 0, 0, 0, 0, 0, 0, 0, 0, 0
"BUS3159", 13.8, 3,    8099.02,   89.4,    1.0165, 0, 0, 0, 0, 0, 0, 0, 0, 0, 0, 0, 0, 0, 0, 0, 0, 0, 0, 0, 0
"BUS3160", 13.8, 3,    8098.91,   89.4,    1.0165, 0, 0, 0, 0, 0, 0, 0, 0, 0, 0, 0, 0, 0, 0, 0, 0, 0, 0, 0, 0
"BUS3161", 13.8, 3,    8098.84,   89.4,    1.0165, 0, 0, 0, 0, 0, 0, 0, 0, 0, 0, 0, 0, 0, 0, 0, 0, 0, 0, 0, 0
"BUS3162", 13.8, 3,    8098.81,   89.4,    1.0165, 0, 0, 0, 0, 0, 0, 0, 0, 0, 0, 0, 0, 0, 0, 0, 0, 0, 0, 0, 0
"BUS1", 13.8, 1,    8128.84,  -30.6,    1.0203, 2,    8133.77, -150.5,    1.0209, 3,    8133.53,   89.5,    1.0208, 0, 0, 0, 0, 0, 0, 0, 0, 0, 0, 0, 0
"T_BUS1003_L", 0.208, 1,    122.115,  -30.9,    1.0169, 2,    122.188, -150.8,    1.0175, 3,    122.187,   89.2,    1.0175, 0, 0, 0, 0, 0, 0, 0, 0, 0, 0, 0, 0
"T_BUS1004_L", 0.208, 1,    122.251,  -30.7,     1.018, 2,    122.323, -150.6,    1.0186, 3,    122.323,   89.4,    1.0186, 0, 0, 0, 0, 0, 0, 0, 0, 0, 0, 0, 0
"T_BUS1005_L", 0.208, 1,    122.333,  -30.7,    1.0187, 2,    122.403, -150.6,    1.0193, 3,    122.404,   89.4,    1.0193, 0, 0, 0, 0, 0, 0, 0, 0, 0, 0, 0, 0
"T_BUS1006_L", 0.208, 1,    122.165,  -31.1,    1.0173, 2,    122.558, -150.5,    1.0206, 0, 0, 0, 0, 0, 0, 0, 0, 0, 0, 0, 0, 0, 0, 0, 0
"T_BUS1007_L", 0.208, 1,    121.937,  -31.4,    1.0154, 2,    122.556, -150.5,    1.0205, 0, 0, 0, 0, 0, 0, 0, 0, 0, 0, 0, 0, 0, 0, 0, 0
"T_BUS1008_L", 0.208, 1,    121.652,  -30.8,     1.013, 2,    121.721, -150.7,    1.0136, 3,    121.724,   89.3,    1.0136, 0, 0, 0, 0, 0, 0, 0, 0, 0, 0, 0, 0
"T_BUS1009_L", 0.208, 1,    121.921,  -30.8,    1.0153, 2,    121.989, -150.7,    1.0158, 3,    121.992,   89.3,    1.0158, 0, 0, 0, 0, 0, 0, 0, 0, 0, 0, 0, 0
"T_BUS1010_L", 0.208, 1,    122.083,  -30.7,    1.0166, 2,     122.15, -150.6,    1.0172, 3,    122.153,   89.3,    1.0172, 0, 0, 0, 0, 0, 0, 0, 0, 0, 0, 0, 0
"T_BUS1011_L", 0.208, 1,    122.234,  -30.8,    1.0179, 2,    122.145,  149.3,    1.0171, 0, 0, 0, 0, 0, 0, 0, 0, 0, 0, 0, 0, 0, 0, 0, 0
"T_BUS1012_L", 0.208, 1,    122.333, -150.6,    1.0187, 2,    122.168,   29.4,    1.0173, 0, 0, 0, 0, 0, 0, 0, 0, 0, 0, 0, 0, 0, 0, 0, 0
"T_BUS1013_L", 0.208, 1,    122.406,  -30.6,    1.0193, 2,    122.473, -150.5,    1.0198, 3,    122.475,   89.4,    1.0199, 0, 0, 0, 0, 0, 0, 0, 0, 0, 0, 0, 0
"T_BUS1014_L", 0.208, 1,    122.429, -150.5,    1.0195, 2,    122.416,   29.5,    1.0194, 0, 0, 0, 0, 0, 0, 0, 0, 0, 0, 0, 0, 0, 0, 0, 0
"T_BUS1015_L", 0.208, 1,    122.428, -150.6,    1.0195, 2,    122.406,   29.4,    1.0193, 0, 0, 0, 0, 0, 0, 0, 0, 0, 0, 0, 0, 0, 0, 0, 0
"T_BUS1016_L", 0.208, 1,    122.337,   89.4,    1.0187, 2,    122.231,  -90.6,    1.0178, 0, 0, 0, 0, 0, 0, 0, 0, 0, 0, 0, 0, 0, 0, 0, 0
"T_BUS1017_L", 0.208, 1,    122.384,   89.4,    1.0191, 2,     122.27,  -90.6,    1.0182, 0, 0, 0, 0, 0, 0, 0, 0, 0, 0, 0, 0, 0, 0, 0, 0
"T_BUS2002_L", 0.208, 1,    122.187,  -30.8,    1.0175, 2,     122.25, -150.7,     1.018, 3,     122.26,   89.2,    1.0181, 0, 0, 0, 0, 0, 0, 0, 0, 0, 0, 0, 0
"T_BUS2003_L", 0.208, 1,    122.053,  -30.8,    1.0164, 2,    122.111, -150.7,    1.0168, 3,    122.134,   89.3,     1.017, 0, 0, 0, 0, 0, 0, 0, 0, 0, 0, 0, 0
"T_BUS2005_L", 0.208, 1,    121.936,  -30.8,    1.0154, 2,    121.989, -150.7,    1.0158, 3,    122.023,   89.3,    1.0161, 0, 0, 0, 0, 0, 0, 0, 0, 0, 0, 0, 0
"T_BUS2008_L", 0.208, 1,     122.21,  -30.7,    1.0177, 2,    122.152,  149.3,    1.0172, 0, 0, 0, 0, 0, 0, 0, 0, 0, 0, 0, 0, 0, 0, 0, 0
"T_BUS2009_L", 0.208, 1,    122.271,  -30.7,    1.0182, 2,    122.236,  149.3,    1.0179, 0, 0, 0, 0, 0, 0, 0, 0, 0, 0, 0, 0, 0, 0, 0, 0
"T_BUS2010_L", 0.208, 1,    122.306,  -30.7,    1.0185, 2,    122.358, -150.6,    1.0189, 3,    122.394,   89.4,    1.0192, 0, 0, 0, 0, 0, 0, 0, 0, 0, 0, 0, 0
"T_BUS2011_L", 0.208, 1,    122.144,  -30.7,    1.0171, 2,    122.194, -150.6,    1.0175, 3,    122.234,   89.3,    1.0179, 0, 0, 0, 0, 0, 0, 0, 0, 0, 0, 0, 0
"T_BUS2014_L", 0.208, 1,    122.276, -150.7,    1.0182, 2,    122.126,   29.3,     1.017, 0, 0, 0, 0, 0, 0, 0, 0, 0, 0, 0, 0, 0, 0, 0, 0
"T_BUS2015_L", 0.208, 1,    122.283, -150.6,    1.0183, 2,     122.24,   29.4,    1.0179, 0, 0, 0, 0, 0, 0, 0, 0, 0, 0, 0, 0, 0, 0, 0, 0
"T_BUS2016_L", 0.208, 1,    122.312, -150.7,    1.0185, 2,    122.266,   29.3,    1.0181, 0, 0, 0, 0, 0, 0, 0, 0, 0, 0, 0, 0, 0, 0, 0, 0
"T_BUS2017_L", 0.208, 1,    122.028, -150.8,    1.0161, 2,    121.882,   29.2,    1.0149, 0, 0, 0, 0, 0, 0, 0, 0, 0, 0, 0, 0, 0, 0, 0, 0
"T_BUS2018_L", 0.208, 1,    122.241, -150.7,    1.0179, 2,    122.162,   29.3,    1.0173, 0, 0, 0, 0, 0, 0, 0, 0, 0, 0, 0, 0, 0, 0, 0, 0
"T_BUS2020_L", 0.208, 1,    122.218, -150.7,    1.0177, 2,     122.13,   29.3,     1.017, 0, 0, 0, 0, 0, 0, 0, 0, 0, 0, 0, 0, 0, 0, 0, 0
"T_BUS2022_L", 0.208, 1,    122.243,   89.3,    1.0179, 2,    122.166,  -90.7,    1.0173, 0, 0, 0, 0, 0, 0, 0, 0, 0, 0, 0, 0, 0, 0, 0, 0
"T_BUS2023_L", 0.208, 1,    122.375,   89.4,     1.019, 2,    122.335,  -90.6,    1.0187, 0, 0, 0, 0, 0, 0, 0, 0, 0, 0, 0, 0, 0, 0, 0, 0
"T_BUS2024_L", 0.208, 1,    122.339,   89.3,    1.0187, 2,    122.267,  -90.7,    1.0181, 0, 0, 0, 0, 0, 0, 0, 0, 0, 0, 0, 0, 0, 0, 0, 0
"T_BUS2025_L", 0.208, 1,    122.259,   89.3,    1.0181, 2,    122.183,  -90.7,    1.0174, 0, 0, 0, 0, 0, 0, 0, 0, 0, 0, 0, 0, 0, 0, 0, 0
"T_BUS2028_L", 0.208, 1,    122.317,  -30.6,    1.0186, 2,    122.317,  149.4,    1.0186, 0, 0, 0, 0, 0, 0, 0, 0, 0, 0, 0, 0, 0, 0, 0, 0
"T_BUS2029_L", 0.208, 1,    122.155,  -30.8,    1.0172, 2,    122.205, -150.7,    1.0176, 3,    122.251,   89.3,     1.018, 0, 0, 0, 0, 0, 0, 0, 0, 0, 0, 0, 0
"T_BUS2030_L", 0.208, 1,    122.221,  -30.7,    1.0178, 2,    122.271, -150.6,    1.0182, 3,    122.317,   89.4,    1.0186, 0, 0, 0, 0, 0, 0, 0, 0, 0, 0, 0, 0
"T_BUS2031_L", 0.208, 1,    122.096,  -30.8,    1.0167, 2,    122.003,  149.2,    1.0159, 0, 0, 0, 0, 0, 0, 0, 0, 0, 0, 0, 0, 0, 0, 0, 0
"T_BUS2032_L", 0.208, 1,     122.28,  -30.7,    1.0182, 2,    122.328, -150.6,    1.0186, 3,    122.375,   89.4,     1.019, 0, 0, 0, 0, 0, 0, 0, 0, 0, 0, 0, 0
"T_BUS2034_L", 0.208, 1,    122.188,  -30.7,    1.0175, 2,    122.236, -150.6,    1.0179, 3,    122.285,   89.4,    1.0183, 0, 0, 0, 0, 0, 0, 0, 0, 0, 0, 0, 0
"T_BUS2035_L", 0.208, 1,    122.279,  -30.7,    1.0182, 2,    122.327, -150.6,    1.0186, 3,    122.376,   89.4,     1.019, 0, 0, 0, 0, 0, 0, 0, 0, 0, 0, 0, 0
"T_BUS2037_L", 0.208, 1,    122.191,  -30.7,    1.0175, 2,    122.239, -150.6,    1.0179, 3,    122.289,   89.3,    1.0183, 0, 0, 0, 0, 0, 0, 0, 0, 0, 0, 0, 0
"T_BUS2040_L", 0.208, 1,    121.593,  -31.3,    1.0125, 2,    121.641, -151.2,    1.0129, 3,    121.696,   88.8,    1.0134, 0, 0, 0, 0, 0, 0, 0, 0, 0, 0, 0, 0
"T_BUS2041_L", 0.208, 1,     122.29,  -30.7,    1.0183, 2,    122.337, -150.6,    1.0187, 3,    122.392,   89.4,    1.0192, 0, 0, 0, 0, 0, 0, 0, 0, 0, 0, 0, 0
"T_BUS2042_L", 0.208, 1,    122.232,  -30.7,    1.0178, 2,    122.279, -150.6,    1.0182, 3,    122.334,   89.3,    1.0187, 0, 0, 0, 0, 0, 0, 0, 0, 0, 0, 0, 0
"T_BUS2043_L", 0.208, 1,    122.193,  -30.7,    1.0175, 2,     122.24, -150.7,    1.0179, 3,    122.296,   89.3,    1.0184, 0, 0, 0, 0, 0, 0, 0, 0, 0, 0, 0, 0
"T_BUS2045_L", 0.208, 1,     122.18, -150.8,    1.0174, 2,    122.061,   29.3,    1.0164, 0, 0, 0, 0, 0, 0, 0, 0, 0, 0, 0, 0, 0, 0, 0, 0
"T_BUS2046_L", 0.208, 1,    122.083, -150.8,    1.0166, 2,    121.856,   29.3,    1.0147, 0, 0, 0, 0, 0, 0, 0, 0, 0, 0, 0, 0, 0, 0, 0, 0
"T_BUS2047_L", 0.208, 1,    122.187, -150.8,    1.0175, 2,    121.998,   29.3,    1.0159, 0, 0, 0, 0, 0, 0, 0, 0, 0, 0, 0, 0, 0, 0, 0, 0
"T_BUS2048_L", 0.208, 1,    122.176, -150.7,    1.0174, 2,    122.048,   29.3,    1.0163, 0, 0, 0, 0, 0, 0, 0, 0, 0, 0, 0, 0, 0, 0, 0, 0
"T_BUS2049_L", 0.208, 1,    122.237,   89.2,    1.0179, 2,    122.048,  -90.7,    1.0163, 0, 0, 0, 0, 0, 0, 0, 0, 0, 0, 0, 0, 0, 0, 0, 0
"T_BUS2050_L", 0.208, 1,    122.297,   89.2,    1.0184, 2,    122.097,  -90.7,    1.0167, 0, 0, 0, 0, 0, 0, 0, 0, 0, 0, 0, 0, 0, 0, 0, 0
"T_BUS2051_L", 0.208, 1,    122.112,   89.2,    1.0169, 2,    121.803,  -90.8,    1.0143, 0, 0, 0, 0, 0, 0, 0, 0, 0, 0, 0, 0, 0, 0, 0, 0
"T_BUS2052_L", 0.208, 1,    121.708,  -31.2,    1.0135, 2,    121.752, -151.1,    1.0139, 3,    121.809,   88.9,    1.0143, 0, 0, 0, 0, 0, 0, 0, 0, 0, 0, 0, 0
"T_BUS2053_L", 0.208, 1,    122.291,  -30.7,    1.0183, 2,    122.341, -150.7,    1.0188, 3,    122.402,   89.3,    1.0193, 0, 0, 0, 0, 0, 0, 0, 0, 0, 0, 0, 0
"T_BUS2054_L", 0.208, 1,    121.905,  -30.9,    1.0151, 2,     121.52,  149.2,    1.0119, 0, 0, 0, 0, 0, 0, 0, 0, 0, 0, 0, 0, 0, 0, 0, 0
"T_BUS2055_L", 0.208, 1,    122.155,  -30.8,    1.0172, 2,    122.009,  149.2,     1.016, 0, 0, 0, 0, 0, 0, 0, 0, 0, 0, 0, 0, 0, 0, 0, 0
"T_BUS2056_L", 0.208, 1,    121.981,  -30.9,    1.0158, 2,    121.847,  149.1,    1.0146, 0, 0, 0, 0, 0, 0, 0, 0, 0, 0, 0, 0, 0, 0, 0, 0
"T_BUS2058_L", 0.208, 1,     122.02,  -30.9,    1.0161, 2,    122.067, -150.8,    1.0165, 3,    122.131,   89.1,     1.017, 0, 0, 0, 0, 0, 0, 0, 0, 0, 0, 0, 0
"T_BUS2059_L", 0.208, 1,    122.136, -150.7,     1.017, 2,    122.061,   29.3,    1.0164, 0, 0, 0, 0, 0, 0, 0, 0, 0, 0, 0, 0, 0, 0, 0, 0
"T_BUS2060_L", 0.208, 1,    122.215, -150.7,    1.0177, 2,    122.159,   29.3,    1.0172, 0, 0, 0, 0, 0, 0, 0, 0, 0, 0, 0, 0, 0, 0, 0, 0
"T_BUS3002_L", 0.208, 1,     121.25,  -30.9,    1.0097, 2,    121.421, -150.8,    1.0111, 3,    121.369,   89.2,    1.0107, 0, 0, 0, 0, 0, 0, 0, 0, 0, 0, 0, 0
"T_BUS3004_L", 0.208, 1,    122.148,  -30.7,    1.0171, 2,    122.318, -150.6,    1.0186, 3,    122.267,   89.4,    1.0181, 0, 0, 0, 0, 0, 0, 0, 0, 0, 0, 0, 0
"T_BUS3006_L", 0.208, 1,     121.94,  -30.7,    1.0154, 2,    122.192, -150.6,    1.0175, 3,      122.1,   89.4,    1.0167, 0, 0, 0, 0, 0, 0, 0, 0, 0, 0, 0, 0
"T_BUS3007_L", 0.208, 1,    121.842,  -30.8,    1.0146, 2,    122.094, -150.7,    1.0167, 3,    122.001,   89.3,    1.0159, 0, 0, 0, 0, 0, 0, 0, 0, 0, 0, 0, 0
"T_BUS3009_L", 0.208, 1,    121.899,  -30.8,    1.0151, 2,    121.681,  149.2,    1.0133, 0, 0, 0, 0, 0, 0, 0, 0, 0, 0, 0, 0, 0, 0, 0, 0
"T_BUS3010_L", 0.208, 1,    121.858,  -30.9,    1.0147, 2,    121.593,  149.2,    1.0125, 0, 0, 0, 0, 0, 0, 0, 0, 0, 0, 0, 0, 0, 0, 0, 0
"T_BUS3011_L", 0.208, 1,     121.79,  -31.0,    1.0142, 2,    121.391,  149.1,    1.0108, 0, 0, 0, 0, 0, 0, 0, 0, 0, 0, 0, 0, 0, 0, 0, 0
"T_BUS3012_L", 0.208, 1,    121.951,  -30.8,    1.0155, 2,    121.822,  149.2,    1.0144, 0, 0, 0, 0, 0, 0, 0, 0, 0, 0, 0, 0, 0, 0, 0, 0
"T_BUS3013_L", 0.208, 1,    122.215, -150.7,    1.0177, 2,    122.143,   29.3,    1.0171, 0, 0, 0, 0, 0, 0, 0, 0, 0, 0, 0, 0, 0, 0, 0, 0
"T_BUS3014_L", 0.208, 1,    122.189, -150.7,    1.0175, 2,    122.023,   29.3,    1.0161, 0, 0, 0, 0, 0, 0, 0, 0, 0, 0, 0, 0, 0, 0, 0, 0
"T_BUS3016_L", 0.208, 1,    122.003, -150.8,    1.0159, 2,    121.668,   29.3,    1.0131, 0, 0, 0, 0, 0, 0, 0, 0, 0, 0, 0, 0, 0, 0, 0, 0
"T_BUS3017_L", 0.208, 1,    122.185, -150.7,    1.0175, 2,    122.089,   29.3,    1.0167, 0, 0, 0, 0, 0, 0, 0, 0, 0, 0, 0, 0, 0, 0, 0, 0
"T_BUS3018_L", 0.208, 1,    121.996,   89.2,    1.0159, 2,    121.709,  -90.7,    1.0135, 0, 0, 0, 0, 0, 0, 0, 0, 0, 0, 0, 0, 0, 0, 0, 0
"T_BUS3019_L", 0.208, 1,    122.006,   89.2,     1.016, 2,    121.716,  -90.7,    1.0136, 0, 0, 0, 0, 0, 0, 0, 0, 0, 0, 0, 0, 0, 0, 0, 0
"T_BUS3020_L", 0.208, 1,    122.071,   89.3,    1.0165, 2,    122.003,  -90.7,    1.0159, 0, 0, 0, 0, 0, 0, 0, 0, 0, 0, 0, 0, 0, 0, 0, 0
"T_BUS3021_L", 0.208, 1,     121.83,   89.1,    1.0145, 2,    121.415,  -90.8,     1.011, 0, 0, 0, 0, 0, 0, 0, 0, 0, 0, 0, 0, 0, 0, 0, 0
"T_BUS3023_L", 0.208, 1,    121.968,  -30.8,    1.0157, 2,     121.82,  149.2,    1.0144, 0, 0, 0, 0, 0, 0, 0, 0, 0, 0, 0, 0, 0, 0, 0, 0
"T_BUS3024_L", 0.208, 1,    121.821,  -30.9,    1.0144, 2,    121.552,  149.2,    1.0122, 0, 0, 0, 0, 0, 0, 0, 0, 0, 0, 0, 0, 0, 0, 0, 0
"T_BUS3025_L", 0.208, 1,    121.864,  -30.9,    1.0148, 2,    121.639,  149.1,    1.0129, 0, 0, 0, 0, 0, 0, 0, 0, 0, 0, 0, 0, 0, 0, 0, 0
"T_BUS3026_L", 0.208, 1,    121.761,  -31.1,    1.0139, 2,    121.208,  149.0,    1.0093, 0, 0, 0, 0, 0, 0, 0, 0, 0, 0, 0, 0, 0, 0, 0, 0
"T_BUS3027_L", 0.208, 1,    121.949,  -30.8,    1.0155, 2,    121.868,  149.2,    1.0148, 0, 0, 0, 0, 0, 0, 0, 0, 0, 0, 0, 0, 0, 0, 0, 0
"T_BUS3028_L", 0.208, 1,    121.769,  -30.9,     1.014, 2,    121.644,  149.1,    1.0129, 0, 0, 0, 0, 0, 0, 0, 0, 0, 0, 0, 0, 0, 0, 0, 0
"T_BUS3029_L", 0.208, 1,    121.906,  -30.8,    1.0151, 2,    121.772,  149.2,     1.014, 0, 0, 0, 0, 0, 0, 0, 0, 0, 0, 0, 0, 0, 0, 0, 0
"T_BUS3031_L", 0.208, 1,    121.911,  -30.8,    1.0152, 2,    122.195, -150.7,    1.0175, 3,    122.063,   89.3,    1.0164, 0, 0, 0, 0, 0, 0, 0, 0, 0, 0, 0, 0
"T_BUS3032_L", 0.208, 1,     121.76,  -30.8,    1.0139, 2,    122.052, -150.7,    1.0163, 3,     121.91,   89.3,    1.0152, 0, 0, 0, 0, 0, 0, 0, 0, 0, 0, 0, 0
"T_BUS3033_L", 0.208, 1,    121.553,  -30.9,    1.0122, 2,    121.856, -150.7,    1.0147, 3,    121.699,   89.3,    1.0134, 0, 0, 0, 0, 0, 0, 0, 0, 0, 0, 0, 0
"T_BUS3034_L", 0.208, 1,    121.868,  -30.8,    1.0148, 2,    122.178, -150.7,    1.0174, 3,    122.011,   89.3,     1.016, 0, 0, 0, 0, 0, 0, 0, 0, 0, 0, 0, 0
"T_BUS3035_L", 0.208, 1,     121.54,  -30.9,    1.0121, 2,    121.816, -150.8,    1.0144, 3,    121.696,   89.2,    1.0134, 0, 0, 0, 0, 0, 0, 0, 0, 0, 0, 0, 0
"T_BUS3036_L", 0.208, 1,    121.914,  -30.8,    1.0152, 2,    122.186, -150.7,    1.0175, 3,    122.072,   89.3,    1.0165, 0, 0, 0, 0, 0, 0, 0, 0, 0, 0, 0, 0
"T_BUS3037_L", 0.208, 1,    121.709,  -30.8,    1.0135, 2,    121.979, -150.7,    1.0157, 3,    121.869,   89.3,    1.0148, 0, 0, 0, 0, 0, 0, 0, 0, 0, 0, 0, 0
"T_BUS3038_L", 0.208, 1,    121.803,  -30.8,    1.0143, 2,     122.07, -150.7,    1.0165, 3,    121.966,   89.3,    1.0156, 0, 0, 0, 0, 0, 0, 0, 0, 0, 0, 0, 0
"T_BUS3039_L", 0.208, 1,    121.883,  -30.8,    1.0149, 2,    122.146, -150.7,    1.0171, 3,    122.048,   89.3,    1.0163, 0, 0, 0, 0, 0, 0, 0, 0, 0, 0, 0, 0
"T_BUS3041_L", 0.208, 1,    122.053,   89.2,    1.0164, 2,    121.873,  -90.7,    1.0149, 0, 0, 0, 0, 0, 0, 0, 0, 0, 0, 0, 0, 0, 0, 0, 0
"T_BUS3042_L", 0.208, 1,    122.007,   89.1,     1.016, 2,    121.593,  -90.9,    1.0125, 0, 0, 0, 0, 0, 0, 0, 0, 0, 0, 0, 0, 0, 0, 0, 0
"T_BUS3043_L", 0.208, 1,    121.962,   89.1,    1.0156, 2,    121.594,  -90.8,    1.0125, 0, 0, 0, 0, 0, 0, 0, 0, 0, 0, 0, 0, 0, 0, 0, 0
"T_BUS3044_L", 0.208, 1,     121.99,   89.3,    1.0158, 2,    121.769,  -90.7,     1.014, 0, 0, 0, 0, 0, 0, 0, 0, 0, 0, 0, 0, 0, 0, 0, 0
"T_BUS3045_L", 0.208, 1,    122.041,   89.2,    1.0163, 2,    121.803,  -90.7,    1.0143, 0, 0, 0, 0, 0, 0, 0, 0, 0, 0, 0, 0, 0, 0, 0, 0
"T_BUS3047_L", 0.208, 1,    121.561,  -30.8,    1.0123, 2,    121.836, -150.7,    1.0146, 3,    121.711,   89.3,    1.0135, 0, 0, 0, 0, 0, 0, 0, 0, 0, 0, 0, 0
"T_BUS3048_L", 0.208, 1,    121.995,  -30.8,    1.0159, 2,    122.269, -150.6,    1.0182, 3,    122.144,   89.4,    1.0171, 0, 0, 0, 0, 0, 0, 0, 0, 0, 0, 0, 0
"T_BUS3049_L", 0.208, 1,    122.027,  -30.7,    1.0161, 2,    122.301, -150.6,    1.0184, 3,    122.176,   89.4,    1.0174, 0, 0, 0, 0, 0, 0, 0, 0, 0, 0, 0, 0
"T_BUS3050_L", 0.208, 1,    121.971,  -30.7,    1.0157, 2,    122.245, -150.6,     1.018, 3,     122.12,   89.4,    1.0169, 0, 0, 0, 0, 0, 0, 0, 0, 0, 0, 0, 0
"T_BUS3051_L", 0.208, 1,    121.981,  -30.7,    1.0158, 2,    122.255, -150.6,     1.018, 3,     122.13,   89.4,     1.017, 0, 0, 0, 0, 0, 0, 0, 0, 0, 0, 0, 0
"T_BUS3052_L", 0.208, 1,    121.754,  -30.8,    1.0139, 2,    122.029, -150.7,    1.0162, 3,    121.903,   89.3,    1.0151, 0, 0, 0, 0, 0, 0, 0, 0, 0, 0, 0, 0
"T_BUS3054_L", 0.208, 1,    121.976,  -30.7,    1.0157, 2,    122.236, -150.6,    1.0179, 3,    122.144,   89.4,    1.0171, 0, 0, 0, 0, 0, 0, 0, 0, 0, 0, 0, 0
"T_BUS3056_L", 0.208, 1,    122.082, -150.7,    1.0166, 2,    121.879,   29.3,    1.0149, 0, 0, 0, 0, 0, 0, 0, 0, 0, 0, 0, 0, 0, 0, 0, 0
"T_BUS3057_L", 0.208, 1,    122.047, -150.7,    1.0163, 2,     121.85,   29.3,    1.0147, 0, 0, 0, 0, 0, 0, 0, 0, 0, 0, 0, 0, 0, 0, 0, 0
"T_BUS3058_L", 0.208, 1,    122.102, -150.7,    1.0168, 2,    121.915,   29.3,    1.0152, 0, 0, 0, 0, 0, 0, 0, 0, 0, 0, 0, 0, 0, 0, 0, 0
"T_BUS3059_L", 0.208, 1,    122.019, -150.8,    1.0161, 2,    121.785,   29.3,    1.0141, 0, 0, 0, 0, 0, 0, 0, 0, 0, 0, 0, 0, 0, 0, 0, 0
"T_BUS3060_L", 0.208, 1,    122.094, -150.7,    1.0167, 2,    121.899,   29.3,    1.0151, 0, 0, 0, 0, 0, 0, 0, 0, 0, 0, 0, 0, 0, 0, 0, 0
"T_BUS3061_L", 0.208, 1,    122.186, -150.7,    1.0175, 2,    122.117,   29.4,    1.0169, 0, 0, 0, 0, 0, 0, 0, 0, 0, 0, 0, 0, 0, 0, 0, 0
"T_BUS3062_L", 0.208, 1,    122.184, -150.6,    1.0174, 2,    122.134,   29.4,     1.017, 0, 0, 0, 0, 0, 0, 0, 0, 0, 0, 0, 0, 0, 0, 0, 0
"T_BUS3063_L", 0.208, 1,    121.961, -150.9,    1.0156, 2,     121.61,   29.2,    1.0127, 0, 0, 0, 0, 0, 0, 0, 0, 0, 0, 0, 0, 0, 0, 0, 0
"T_BUS3064_L", 0.208, 1,    121.954, -150.9,    1.0155, 2,    121.535,   29.1,     1.012, 0, 0, 0, 0, 0, 0, 0, 0, 0, 0, 0, 0, 0, 0, 0, 0
"T_BUS3065_L", 0.208, 1,    122.107, -150.7,    1.0168, 2,    121.957,   29.3,    1.0156, 0, 0, 0, 0, 0, 0, 0, 0, 0, 0, 0, 0, 0, 0, 0, 0
"T_BUS3066_L", 0.208, 1,    122.055, -150.7,    1.0164, 2,     121.88,   29.3,    1.0149, 0, 0, 0, 0, 0, 0, 0, 0, 0, 0, 0, 0, 0, 0, 0, 0
"T_BUS3067_L", 0.208, 1,    121.986, -150.8,    1.0158, 2,    121.653,   29.2,     1.013, 0, 0, 0, 0, 0, 0, 0, 0, 0, 0, 0, 0, 0, 0, 0, 0
"T_BUS3070_L", 0.208, 1,    122.038,  -30.7,    1.0162, 2,    122.352, -150.6,    1.0188, 3,     122.18,   89.4,    1.0174, 0, 0, 0, 0, 0, 0, 0, 0, 0, 0, 0, 0
"T_BUS3071_L", 0.208, 1,     121.96,  -30.8,    1.0156, 2,    122.275, -150.6,    1.0182, 3,    122.103,   89.4,    1.0168, 0, 0, 0, 0, 0, 0, 0, 0, 0, 0, 0, 0
"T_BUS3072_L", 0.208, 1,    121.988,  -30.8,    1.0158, 2,    122.302, -150.6,    1.0184, 3,     122.13,   89.4,     1.017, 0, 0, 0, 0, 0, 0, 0, 0, 0, 0, 0, 0
"T_BUS3073_L", 0.208, 1,     121.94,  -30.8,    1.0154, 2,    122.255, -150.6,     1.018, 3,    122.083,   89.4,    1.0166, 0, 0, 0, 0, 0, 0, 0, 0, 0, 0, 0, 0
"T_BUS3074_L", 0.208, 1,    121.792,  -30.8,    1.0142, 2,    122.107, -150.7,    1.0168, 3,    121.935,   89.3,    1.0154, 0, 0, 0, 0, 0, 0, 0, 0, 0, 0, 0, 0
"T_BUS3077_L", 0.208, 1,    121.741,  -31.0,    1.0138, 2,    122.062, -150.9,    1.0164, 3,    121.882,   89.1,    1.0149, 0, 0, 0, 0, 0, 0, 0, 0, 0, 0, 0, 0
"T_BUS3078_L", 0.208, 1,    121.829,  -30.8,    1.0145, 2,    122.149, -150.7,    1.0172, 3,     121.97,   89.3,    1.0157, 0, 0, 0, 0, 0, 0, 0, 0, 0, 0, 0, 0
"T_BUS3081_L", 0.208, 1,    121.964,  -30.8,    1.0156, 2,    122.307, -150.6,    1.0185, 3,    122.098,   89.4,    1.0167, 0, 0, 0, 0, 0, 0, 0, 0, 0, 0, 0, 0
"T_BUS3083_L", 0.208, 1,    121.823,  -30.9,    1.0144, 2,    121.618,  149.1,    1.0127, 0, 0, 0, 0, 0, 0, 0, 0, 0, 0, 0, 0, 0, 0, 0, 0
"T_BUS3084_L", 0.208, 1,    121.845,  -30.9,    1.0146, 2,    121.724,  149.2,    1.0136, 0, 0, 0, 0, 0, 0, 0, 0, 0, 0, 0, 0, 0, 0, 0, 0
"T_BUS3085_L", 0.208, 1,    121.703,  -31.0,    1.0134, 2,    121.339,  149.0,    1.0104, 0, 0, 0, 0, 0, 0, 0, 0, 0, 0, 0, 0, 0, 0, 0, 0
"T_BUS3086_L", 0.208, 1,    121.806,  -30.9,    1.0143, 2,     121.68,  149.2,    1.0132, 0, 0, 0, 0, 0, 0, 0, 0, 0, 0, 0, 0, 0, 0, 0, 0
"T_BUS3087_L", 0.208, 1,    121.716,  -30.9,    1.0136, 2,    121.496,  149.1,    1.0117, 0, 0, 0, 0, 0, 0, 0, 0, 0, 0, 0, 0, 0, 0, 0, 0
"T_BUS3088_L", 0.208, 1,    121.673,  -31.1,    1.0132, 2,     121.22,  148.9,    1.0094, 0, 0, 0, 0, 0, 0, 0, 0, 0, 0, 0, 0, 0, 0, 0, 0
"T_BUS3089_L", 0.208, 1,    121.866,  -30.8,    1.0148, 2,    121.821,  149.2,    1.0144, 0, 0, 0, 0, 0, 0, 0, 0, 0, 0, 0, 0, 0, 0, 0, 0
"T_BUS3090_L", 0.208, 1,    121.828,  -30.9,    1.0145, 2,    121.654,  149.1,     1.013, 0, 0, 0, 0, 0, 0, 0, 0, 0, 0, 0, 0, 0, 0, 0, 0
"T_BUS3091_L", 0.208, 1,    121.781,  -30.9,    1.0141, 2,    121.709,  149.1,    1.0135, 0, 0, 0, 0, 0, 0, 0, 0, 0, 0, 0, 0, 0, 0, 0, 0
"T_BUS3093_L", 0.208, 1,    121.716,  -30.9,    1.0136, 2,    121.487,  149.1,    1.0116, 0, 0, 0, 0, 0, 0, 0, 0, 0, 0, 0, 0, 0, 0, 0, 0
"T_BUS3094_L", 0.208, 1,    121.853,  -30.9,    1.0147, 2,    121.685,  149.1,    1.0133, 0, 0, 0, 0, 0, 0, 0, 0, 0, 0, 0, 0, 0, 0, 0, 0
"T_BUS3095_L", 0.208, 1,     121.68,  -31.0,    1.0133, 2,    121.363,  149.1,    1.0106, 0, 0, 0, 0, 0, 0, 0, 0, 0, 0, 0, 0, 0, 0, 0, 0
"T_BUS3096_L", 0.208, 1,     121.81,  -30.9,    1.0143, 2,    121.657,  149.1,    1.0131, 0, 0, 0, 0, 0, 0, 0, 0, 0, 0, 0, 0, 0, 0, 0, 0
"T_BUS3097_L", 0.208, 1,    121.463,  -31.2,    1.0114, 2,    120.863,  148.9,    1.0064, 0, 0, 0, 0, 0, 0, 0, 0, 0, 0, 0, 0, 0, 0, 0, 0
"T_BUS3098_L", 0.208, 1,    122.058, -150.8,    1.0164, 2,    121.836,   29.2,    1.0145, 0, 0, 0, 0, 0, 0, 0, 0, 0, 0, 0, 0, 0, 0, 0, 0
"T_BUS3099_L", 0.208, 1,    122.189, -150.8,    1.0175, 2,    121.952,   29.2,    1.0155, 0, 0, 0, 0, 0, 0, 0, 0, 0, 0, 0, 0, 0, 0, 0, 0
"T_BUS3101_L", 0.208, 1,    121.928,   89.3,    1.0153, 2,    121.801,  -90.7,    1.0143, 0, 0, 0, 0, 0, 0, 0, 0, 0, 0, 0, 0, 0, 0, 0, 0
"T_BUS3102_L", 0.208, 1,    121.764,   89.1,    1.0139, 2,    121.322,  -90.9,    1.0103, 0, 0, 0, 0, 0, 0, 0, 0, 0, 0, 0, 0, 0, 0, 0, 0
"T_BUS3103_L", 0.208, 1,    121.822,   89.2,    1.0144, 2,    121.591,  -90.8,    1.0125, 0, 0, 0, 0, 0, 0, 0, 0, 0, 0, 0, 0, 0, 0, 0, 0
"T_BUS3104_L", 0.208, 1,    121.896,   89.2,     1.015, 2,    121.797,  -90.8,    1.0142, 0, 0, 0, 0, 0, 0, 0, 0, 0, 0, 0, 0, 0, 0, 0, 0
"T_BUS3105_L", 0.208, 1,    121.965,   89.3,    1.0156, 2,    121.801,  -90.7,    1.0143, 0, 0, 0, 0, 0, 0, 0, 0, 0, 0, 0, 0, 0, 0, 0, 0
"T_BUS3106_L", 0.208, 1,    121.847,   89.2,    1.0146, 2,    121.736,  -90.8,    1.0137, 0, 0, 0, 0, 0, 0, 0, 0, 0, 0, 0, 0, 0, 0, 0, 0
"T_BUS3108_L", 0.208, 1,    121.798,  -30.9,    1.0142, 2,    121.682,  149.1,    1.0133, 0, 0, 0, 0, 0, 0, 0, 0, 0, 0, 0, 0, 0, 0, 0, 0
"T_BUS3109_L", 0.208, 1,     121.16,  -31.3,    1.0089, 2,    120.411,  148.9,    1.0027, 0, 0, 0, 0, 0, 0, 0, 0, 0, 0, 0, 0, 0, 0, 0, 0
"T_BUS3110_L", 0.208, 1,    121.706,  -31.1,    1.0135, 2,    121.377,  148.9,    1.0107, 0, 0, 0, 0, 0, 0, 0, 0, 0, 0, 0, 0, 0, 0, 0, 0
"T_BUS3111_L", 0.208, 1,    121.604,  -31.1,    1.0126, 2,    121.268,  149.0,    1.0098, 0, 0, 0, 0, 0, 0, 0, 0, 0, 0, 0, 0, 0, 0, 0, 0
"T_BUS3112_L", 0.208, 1,    121.705,  -31.1,    1.0135, 2,    121.383,  148.9,    1.0108, 0, 0, 0, 0, 0, 0, 0, 0, 0, 0, 0, 0, 0, 0, 0, 0
"T_BUS3114_L", 0.208, 1,    122.016, -150.8,    1.0161, 2,     121.74,   29.3,    1.0137, 0, 0, 0, 0, 0, 0, 0, 0, 0, 0, 0, 0, 0, 0, 0, 0
"T_BUS3115_L", 0.208, 1,    122.135, -150.9,     1.017, 2,    121.867,   29.2,    1.0148, 0, 0, 0, 0, 0, 0, 0, 0, 0, 0, 0, 0, 0, 0, 0, 0
"T_BUS3116_L", 0.208, 1,    122.011, -150.9,     1.016, 2,    121.617,   29.2,    1.0127, 0, 0, 0, 0, 0, 0, 0, 0, 0, 0, 0, 0, 0, 0, 0, 0
"T_BUS3117_L", 0.208, 1,    122.076, -150.8,    1.0165, 2,    121.879,   29.3,    1.0149, 0, 0, 0, 0, 0, 0, 0, 0, 0, 0, 0, 0, 0, 0, 0, 0
"T_BUS3120_L", 0.208, 1,    122.153, -150.8,    1.0172, 2,    121.981,   29.3,    1.0158, 0, 0, 0, 0, 0, 0, 0, 0, 0, 0, 0, 0, 0, 0, 0, 0
"T_BUS3121_L", 0.208, 1,    122.134, -150.7,     1.017, 2,    121.981,   29.3,    1.0158, 0, 0, 0, 0, 0, 0, 0, 0, 0, 0, 0, 0, 0, 0, 0, 0
"T_BUS3122_L", 0.208, 1,    122.018, -150.8,    1.0161, 2,    121.792,   29.3,    1.0142, 0, 0, 0, 0, 0, 0, 0, 0, 0, 0, 0, 0, 0, 0, 0, 0
"T_BUS3123_L", 0.208, 1,    121.965, -150.8,    1.0156, 2,    121.692,   29.2,    1.0134, 0, 0, 0, 0, 0, 0, 0, 0, 0, 0, 0, 0, 0, 0, 0, 0
"T_BUS3124_L", 0.208, 1,    122.056, -150.7,    1.0164, 2,    121.881,   29.3,    1.0149, 0, 0, 0, 0, 0, 0, 0, 0, 0, 0, 0, 0, 0, 0, 0, 0
"T_BUS3125_L", 0.208, 1,    122.142, -150.7,    1.0171, 2,      122.1,   29.3,    1.0167, 0, 0, 0, 0, 0, 0, 0, 0, 0, 0, 0, 0, 0, 0, 0, 0
"T_BUS3126_L", 0.208, 1,    121.926, -150.9,    1.0153, 2,     121.59,   29.2,    1.0125, 0, 0, 0, 0, 0, 0, 0, 0, 0, 0, 0, 0, 0, 0, 0, 0
"T_BUS3127_L", 0.208, 1,    122.044, -150.9,    1.0163, 2,    121.714,   29.2,    1.0135, 0, 0, 0, 0, 0, 0, 0, 0, 0, 0, 0, 0, 0, 0, 0, 0
"T_BUS3128_L", 0.208, 1,    122.069, -150.8,    1.0165, 2,    121.871,   29.3,    1.0148, 0, 0, 0, 0, 0, 0, 0, 0, 0, 0, 0, 0, 0, 0, 0, 0
"T_BUS3129_L", 0.208, 1,    122.132, -150.7,     1.017, 2,    122.027,   29.3,    1.0161, 0, 0, 0, 0, 0, 0, 0, 0, 0, 0, 0, 0, 0, 0, 0, 0
"T_BUS3130_L", 0.208, 1,    122.106, -150.8,    1.0168, 2,     121.91,   29.2,    1.0152, 0, 0, 0, 0, 0, 0, 0, 0, 0, 0, 0, 0, 0, 0, 0, 0
"T_BUS3131_L", 0.208, 1,    122.032, -150.8,    1.0162, 2,    121.842,   29.3,    1.0146, 0, 0, 0, 0, 0, 0, 0, 0, 0, 0, 0, 0, 0, 0, 0, 0
"T_BUS3132_L", 0.208, 1,    121.412,  -31.1,     1.011, 2,    121.013,  149.0,    1.0077, 0, 0, 0, 0, 0, 0, 0, 0, 0, 0, 0, 0, 0, 0, 0, 0
"T_BUS3134_L", 0.208, 1,    121.716,  -31.0,    1.0135, 2,    121.511,  149.0,    1.0118, 0, 0, 0, 0, 0, 0, 0, 0, 0, 0, 0, 0, 0, 0, 0, 0
"T_BUS3135_L", 0.208, 1,    121.548,  -31.1,    1.0121, 2,     121.17,  149.0,     1.009, 0, 0, 0, 0, 0, 0, 0, 0, 0, 0, 0, 0, 0, 0, 0, 0
"T_BUS3136_L", 0.208, 1,    121.437,  -31.1,    1.0112, 2,    121.111,  149.0,    1.0085, 0, 0, 0, 0, 0, 0, 0, 0, 0, 0, 0, 0, 0, 0, 0, 0
"T_BUS3137_L", 0.208, 1,    121.529,  -31.2,     1.012, 2,    121.054,  148.8,     1.008, 0, 0, 0, 0, 0, 0, 0, 0, 0, 0, 0, 0, 0, 0, 0, 0
"T_BUS3138_L", 0.208, 1,     121.51,  -31.0,    1.0118, 2,    121.217,  149.0,    1.0094, 0, 0, 0, 0, 0, 0, 0, 0, 0, 0, 0, 0, 0, 0, 0, 0
"T_BUS3139_L", 0.208, 1,    121.813,  -30.8,    1.0144, 2,    121.813,  149.2,    1.0144, 0, 0, 0, 0, 0, 0, 0, 0, 0, 0, 0, 0, 0, 0, 0, 0
"T_BUS3141_L", 0.208, 1,    121.869,   89.2,    1.0148, 2,    121.605,  -90.8,    1.0126, 0, 0, 0, 0, 0, 0, 0, 0, 0, 0, 0, 0, 0, 0, 0, 0
"T_BUS3142_L", 0.208, 1,    121.876,   89.2,    1.0149, 2,     121.66,  -90.8,    1.0131, 0, 0, 0, 0, 0, 0, 0, 0, 0, 0, 0, 0, 0, 0, 0, 0
"T_BUS3143_L", 0.208, 1,    121.708,   89.1,    1.0135, 2,    121.292,  -90.9,      1.01, 0, 0, 0, 0, 0, 0, 0, 0, 0, 0, 0, 0, 0, 0, 0, 0
"T_BUS3144_L", 0.208, 1,    121.944,   89.3,    1.0154, 2,    121.917,  -90.7,    1.0152, 0, 0, 0, 0, 0, 0, 0, 0, 0, 0, 0, 0, 0, 0, 0, 0
"T_BUS3145_L", 0.208, 1,    121.898,   89.3,    1.0151, 2,    121.803,  -90.7,    1.0143, 0, 0, 0, 0, 0, 0, 0, 0, 0, 0, 0, 0, 0, 0, 0, 0
"T_BUS3146_L", 0.208, 1,    121.909,   89.3,    1.0152, 2,    121.823,  -90.7,    1.0144, 0, 0, 0, 0, 0, 0, 0, 0, 0, 0, 0, 0, 0, 0, 0, 0
"T_BUS3147_L", 0.208, 1,    121.561,   89.0,    1.0123, 2,    121.112,  -90.9,    1.0085, 0, 0, 0, 0, 0, 0, 0, 0, 0, 0, 0, 0, 0, 0, 0, 0
"T_BUS3148_L", 0.208, 1,    121.625,   89.1,    1.0128, 2,    121.281,  -90.9,    1.0099, 0, 0, 0, 0, 0, 0, 0, 0, 0, 0, 0, 0, 0, 0, 0, 0
"T_BUS3149_L", 0.208, 1,    121.903,   89.3,    1.0151, 2,    121.794,  -90.7,    1.0142, 0, 0, 0, 0, 0, 0, 0, 0, 0, 0, 0, 0, 0, 0, 0, 0
"T_BUS3150_L", 0.208, 1,    121.886,   89.2,     1.015, 2,    121.812,  -90.8,    1.0144, 0, 0, 0, 0, 0, 0, 0, 0, 0, 0, 0, 0, 0, 0, 0, 0
"T_BUS3151_L", 0.208, 1,    121.908,   89.3,    1.0151, 2,     121.86,  -90.7,    1.0148, 0, 0, 0, 0, 0, 0, 0, 0, 0, 0, 0, 0, 0, 0, 0, 0
"T_BUS3152_L", 0.208, 1,     121.86,   89.3,    1.0148, 2,    121.805,  -90.7,    1.0143, 0, 0, 0, 0, 0, 0, 0, 0, 0, 0, 0, 0, 0, 0, 0, 0
"T_BUS3153_L", 0.208, 1,    121.684,   89.1,    1.0133, 2,    121.363,  -90.8,    1.0106, 0, 0, 0, 0, 0, 0, 0, 0, 0, 0, 0, 0, 0, 0, 0, 0
"T_BUS3154_L", 0.208, 1,    121.843,   89.1,    1.0146, 2,    121.706,  -90.9,    1.0135, 0, 0, 0, 0, 0, 0, 0, 0, 0, 0, 0, 0, 0, 0, 0, 0
"T_BUS3155_L", 0.208, 1,    121.914,   89.3,    1.0152, 2,    121.872,  -90.7,    1.0148, 0, 0, 0, 0, 0, 0, 0, 0, 0, 0, 0, 0, 0, 0, 0, 0
"T_BUS3157_L", 0.208, 1,    121.641,   89.1,    1.0129, 2,    121.306,  -90.9,    1.0101, 0, 0, 0, 0, 0, 0, 0, 0, 0, 0, 0, 0, 0, 0, 0, 0
"T_BUS3158_L", 0.208, 1,    121.827,   89.2,    1.0145, 2,    121.603,  -90.8,    1.0126, 0, 0, 0, 0, 0, 0, 0, 0, 0, 0, 0, 0, 0, 0, 0, 0
"T_BUS3159_L", 0.208, 1,    121.611,   89.1,    1.0127, 2,    121.275,  -90.9,    1.0099, 0, 0, 0, 0, 0, 0, 0, 0, 0, 0, 0, 0, 0, 0, 0, 0
"T_BUS3160_L", 0.208, 1,    121.763,   89.2,    1.0139, 2,    121.642,  -90.8,    1.0129, 0, 0, 0, 0, 0, 0, 0, 0, 0, 0, 0, 0, 0, 0, 0, 0
"T_BUS3161_L", 0.208, 1,    121.893,   89.2,     1.015, 2,    121.815,  -90.8,    1.0144, 0, 0, 0, 0, 0, 0, 0, 0, 0, 0, 0, 0, 0, 0, 0, 0
"T_BUS3162_L", 0.208, 1,    121.838,   89.2,    1.0146, 2,    121.731,  -90.8,    1.0137, 0, 0, 0, 0, 0, 0, 0, 0, 0, 0, 0, 0, 0, 0, 0, 0
"BUS_XFMR", 13.8, 1,    7932.58,  -30.6,   0.99563, 2,    7937.07, -150.5,   0.99619, 3,    7936.94,   89.5,   0.99617, 0, 0, 0, 0, 0, 0, 0, 0, 0, 0, 0, 0
